231
config_type=divacancy dft_energy=-23182.416793371944 dft_virial="53.414851212943695 -0.4070767202420993 0.21551120483405256 -0.40707672024209923 52.02201027799768 -0.3551943931524199 0.21551120483405256 -0.3551943931524199 50.93248140911442" pbc="T T T" Lattice="16.3199774331 0.0 0.0 0.0 16.3199774331 0.0 0.0 0.0 16.3199774331" Properties=species:S:1:pos:R:3:Z:I:1:dft_force:R:3
Si	1.3052489471309316	1.3206256298683985	1.4514122970195187	14	0.021468472312704445	-0.046187850192204116	0.0289928120321178
Si	2.8784033798081463	2.537397451343522	0.235334074585302	14	-0.44713269868992794	0.5066216480348541	-0.4965179754582682
Si	4.103348245981766	4.098191133112906	1.4503971944231797	14	0.010924883615841203	-0.05211270529195335	0.004564226164326869
Si	2.6910173989212924	16.295040507582225	2.781642233607297	14	-0.01747734552423858	0.013268189004624162	-0.007241518134197064
Si	4.0418056110815455	1.3601721991842863	4.1199456630312286	14	0.019900355177946128	-0.014894670230149837	0.001638565420530371
Si	16.283371723717558	2.712820888771914	2.7993167691673437	14	-0.11101672817654584	-0.002070511114315248	0.005424775114980432
Si	1.3265367256946672	4.089704744847695	4.128595251070771	14	-0.025750648223411072	0.011151655105078264	-0.03631326309964341
Si	0.00255407646828015	0.01610944972421301	5.463177725639957	14	-0.018848258880941538	-0.2265112933786616	0.0002936202275609106
Si	1.3475894965833661	1.3629955552802127	6.836340626860991	14	-0.004077515927222839	0.0754565418251738	0.030773045355788325
Si	2.688928441809855	2.729499905708542	5.475499308601948	14	0.019189187446393172	-0.00834606497973268	-0.01120667675892943
Si	4.040483692909465	4.098240093045206	6.821766887013233	14	-0.007086223372860121	-0.0003422141181117093	0.025213544322032135
Si	2.7010541850426484	16.302531377224017	8.171885980098729	14	0.012327678678513995	-0.048310554744518376	0.004574767696139476
Si	4.017619404525692	1.331515950809506	9.549357355362103	14	0.024101798381600106	0.08011024245464182	0.008764383815320773
Si	16.316533917861616	2.7150567256802485	8.206157932708239	14	-0.040316216972581954	0.006400252473444614	-0.006610825999164741
Si	1.3417681606329797	4.090031144396356	9.551919591819098	14	-0.010695798131816007	0.003750728441032018	0.02960267821405692
Si	16.324547026781268	-0.00020563171565706	10.902968923618282	14	0.03897975642716898	-0.016306978382507175	-0.01665433471125918
Si	1.3568298678059874	1.359896391565667	12.256711051693928	14	-0.09545485611581758	0.01442904305667102	0.04905514684523326
Si	2.6933348357167923	2.72143783685659	10.893307496977888	14	-0.01319851205044815	-0.02186982185317956	0.06539580670743438
Si	4.05319695532985	4.057097429936361	12.26441408104235	14	0.013210339134920831	0.07416687539658753	-0.0422131784777872
Si	2.6782714965460412	0.006686294754341069	13.6482339275272	14	-0.03626286943536851	-0.02153249283517613	-0.1068854761481319
Si	4.089051945750371	1.311409738611927	14.9933754274956	14	-0.004528230689844796	-0.008134463011884491	0.08126878251190056
Si	16.245672575847095	2.6507070546615354	13.581256740141756	14	-0.006490755380713825	0.07016803529216122	0.06907017332045799
Si	0.9805156681648511	4.461131111247617	14.641190314489302	14	-0.4964603826990968	0.2405968367645608	-0.28088965667872945
Si	16.238948745144658	5.510815739767176	0.1380523211043362	14	-0.005274108343219754	-0.025930111374757404	-0.09293491579154044
Si	1.3849867248713148	6.840975500451992	1.3924400585650116	14	-0.09290303408557062	-0.011954097075496477	-0.01806330042670033
Si	2.7349834181260637	8.195598907309025	0.02565990051806313	14	0.010723308958741594	-0.10946969410541274	0.03539589272141457
Si	4.100802329502203	9.545881200168852	1.3735545806794285	14	0.0038682279541627845	0.09229085390884335	0.0037373586933672474
Si	2.6866926049015207	5.439725918068592	2.7573254672319774	14	-0.015003942206256131	0.03688584825444039	0.0031550033383537074
Si	4.046081445169018	6.8035374722204605	4.100671769682738	14	0.005664659241350248	0.008957473824863893	0.0014182216945936804
Si	0.01346887737553743	8.189560515658778	2.7340858193672433	14	-0.014937607688996312	-0.06445349660760011	0.041652163296930896
Si	1.3740180680385286	9.534114496439587	4.092936100379448	14	-0.018463107303983355	-0.0005481596542555704	-0.02908717159736723
Si	16.284726281844502	5.458640771913555	5.4772292262098565	14	-0.012579646999888507	0.018675737713959605	0.04173238178291951
Si	1.3402846746843107	6.80685042763938	6.82475344288349	14	-0.01712279010059016	-0.007307081319860841	-0.03434199665068588
Si	2.696843630864909	8.158944237994282	5.463047165820492	14	-0.013927163298178113	0.003796494115730654	0.034343539313877965
Si	4.050259359391892	9.512115166859768	6.82475344288349	14	0.028982013389773176	-0.012421781133231415	-0.014479179610413907
Si	2.6906420394403305	5.452781900015073	8.188450757193326	14	-0.0018265132194331952	0.005476197221383394	-0.005219086689368585
Si	4.051320157925043	6.8120728204179715	9.541099446780954	14	-0.011125172720280739	-0.0037134474138898702	0.002573676425468227
Si	0.00118972635487299	8.170270302332852	8.188630276945089	14	-0.018876026818399137	0.010045822706882574	0.025414604758067717
Si	1.3583296737320893	9.552849830532786	9.522935311897912	14	0.015968106701311657	-0.008834574990560813	0.01947406591586558
Si	16.32324142858662	5.444475031501625	10.935135599138922	14	-0.04523859810800545	-0.021883962932440375	-0.012660379706941156
Si	1.3694958022918164	6.862632110505716	12.232524845138073	14	0.060825152779807136	-0.04350387334850154	0.01824147802538659
Si	2.7196915992712487	8.214220001560191	10.86988832936139	14	-0.10340754198156761	-0.04471434973322726	0.05879243691369806
Si	4.073042047888499	9.536268733460757	12.264528320884382	14	0.033838060007936856	-0.039231467638011476	-0.05035432636350408
Si	2.7648163368737704	5.5245245208109806	13.555030536406765	14	-0.10844228041948158	-0.13650589498889784	0.2075077397363831
Si	4.0796842787037715	6.822909285433551	14.994207746344689	14	-0.015050479212550809	-0.04325216213765904	-0.1751727478986048
Si	0.01185156761191722	8.149348091263619	13.668568619408841	14	-0.05875644143921599	0.04343445350485754	-0.020104758050897904
Si	1.3649376325947515	9.53448985592055	14.995137985058376	14	-0.025640090694644704	-0.042459233256925376	0.0012927517549704542
Si	16.315930078696592	10.88389086999899	0.02484879763963806	14	-0.029731233480064324	0.0003026190961814289	-0.01740406902261436
Si	1.3568674037540835	12.237894117713562	1.3800548276910323	14	0.0064231353107939305	-0.016323947677620153	-0.07227454188095855
Si	2.704726179965096	13.592713364299792	0.01400090863985649	14	-0.01374024394140335	0.008241163882670637	0.017833186500547077
Si	4.033580342455263	14.944823494632129	1.4010945425977845	14	0.016440675859154878	-0.009880243524265036	0.009808252575300892
Si	2.726056390470158	10.885865587268395	2.7287981466789186	14	-0.025651917779117385	0.00961670522894986	0.056783889437598385
Si	4.069794372379313	12.232541165115506	4.1030381664105375	14	0.030196860653543142	0.002265915118646502	-0.02325847583659154
Si	0.00717752607507738	13.592664404367493	2.740254770836955	14	-0.020354155266952265	-0.005035766880042028	0.1918846753690353
Si	1.3392238761511592	14.941787978829572	4.128073011792913	14	0.022511055520024487	0.03569259827535966	-0.039070259334438195
Si	0.0348105118648023	10.885457587832565	5.46392844460188	14	0.04551293504566525	0.012488629871555265	0.011428820258590227
Si	1.3848790130202564	12.241256033064783	6.828915037128931	14	0.013439938840010055	0.03734916143313107	0.028411485119232315
Si	2.7189408803093262	13.589579928632638	5.461708927670979	14	-0.01622110346481423	-0.020736735738590303	-0.003862828632990474
Si	4.06530637858521	14.936630865960712	6.829747355978019	14	0.0008536069662891622	-0.014329284170249276	-0.0028487846947240717
Si	2.7428333272713843	10.899068449011772	8.196104826609451	14	-0.05384691583039323	-0.02966104230482429	-0.024422158104490558
Si	4.115767748808356	12.244373148754503	9.564126934939058	14	0.03550902135550109	0.060768331352231864	0.03598467583972849
Si	0.04849318094471334	13.641591696711927	8.153591285396224	14	-0.04904331976076058	-0.07417047494403575	0.045763874924911706
Si	1.3681396121671257	14.966202665069488	9.54818231698692	14	-0.02753165287867764	0.008822233685024102	-0.02560409522016263
Si	16.308063849573838	10.882683191668939	10.889749741897472	14	0.048372518382733945	-0.00017946315134633592	0.00856743714779743
Si	1.350092981121604	12.238514276856021	12.252108818057794	14	-0.04242735155095553	0.02817005832967041	-0.016855138036762748
Si	2.7158564045744704	13.590820246917552	10.898578849688779	14	-0.04322413708966943	0.049237181101899744	-0.028361862786553463
Si	4.011842132514374	14.984219920155631	12.2656707193047	14	-0.050894515591267196	0.006640650820878459	0.09834503560619605
Si	2.7056237787239166	10.886061426997593	13.616050932029125	14	-0.027279684557303133	-0.03439496142028093	-0.005978076979876299
Si	4.057407509507589	12.24667426557257	14.964864426919974	14	0.008948474956243374	0.03145156004977541	0.03569131272269959
Si	16.308096489528705	13.596238479425342	13.614892213631375	14	0.007306052877732781	-0.013684450955956136	-0.017626726743339188
Si	1.3367562955632746	14.944154375557371	14.989115913385563	14	0.004673498140433162	0.05389628105254008	0.0065036109073145654
Si	5.40685748351833	16.30600753241727	0.07613922271638474	14	0.01691838722763839	0.011171452616043402	-0.07784304178333526
Si	6.760469051774509	1.3747084030839485	1.3992454891546144	14	0.02205699832048634	-0.03043674477991296	0.02016080814687713
Si	8.097907522394488	2.6973985100976345	16.314118561201518	14	-0.0408291524839515	0.07741366719487053	0.0507991275838897
Si	9.444517820331868	4.104555924311815	1.3039645649069467	14	0.06446583791313681	0.04304801637523929	-0.17123407165866997
Si	8.121881569243712	0.00869038798312575	2.7344122189159052	14	0.06459079363169601	-0.023529470337335146	0.11683282552125282
Si	9.444958459722562	1.3121914655309725	4.1447683487069735	14	-0.13671826828834208	-0.19327410068404335	-0.034440984205511574
Si	5.432120808584768	2.7178474418213083	2.792478698622875	14	0.023664967587706948	0.06145584491483946	0.0119579537334767
Si	6.800567236327637	4.0845802719337	4.1113776748788515	14	0.0030521591255477844	-0.022308195310264806	0.011911159616650005
Si	5.393785181594416	16.307198890769882	5.466915000472137	14	0.025294019918552776	0.018086440374581663	-0.01711507678462972
Si	6.707396485162068	1.3775187031979286	6.823480484643708	14	0.09180440078227134	0.06739098443586929	-0.02308852577492975
Si	8.10428863357083	2.690837879169528	5.4765111472028005	14	-0.0420758814536913	-0.06551999109439753	0.06810343772008232
Si	9.440617345725357	4.053229595284716	6.8351655884858085	14	0.055649517770349044	-0.07522642789902055	-0.05831318288202246
Si	8.07065316008121	0.07134604534428327	8.198454903359817	14	-0.03697557983011355	0.11130880574091466	-0.041654220181187016
Si	9.408189550565787	1.416774776915507	9.550565033692152	14	-0.00787606692720961	-0.024459953352696736	-0.05297351135313893
Si	5.332503666333126	2.69095211901156	8.184060683263823	14	-0.017355732242595578	-0.059759943845669794	-0.0018211138982608844
Si	6.656396555683631	3.9934331979698374	9.58952081982496	14	-0.02678371834104657	0.034627903562286344	-0.008225994361281764
Si	5.381153519061197	-0.01300375801869408	10.909464274636656	14	-0.035687970285783396	0.004717464041407695	-0.08065814499836538
Si	6.719979187762989	1.3403107866482038	12.273210548878792	14	-0.022351904100707327	-0.06713155990906634	-0.17667324496344322
Si	8.077572830512844	2.721078797353062	10.94890966009246	14	-0.007746483219074147	-0.03789012199249022	-0.008670538471135367
Si	9.464411872822817	4.1122263137053725	12.235837800556993	14	-0.08635520016674951	-0.005364097029424938	-0.0005813269128854807
Si	8.067340204662292	16.298728822482104	13.638458261044772	14	-0.08445361067196798	0.37332294982230896	0.00038566579802221183
Si	9.439164867733812	1.3523239220367085	14.939552141921236	14	0.20648264004524008	-0.23162933562894836	-0.005146067298276381
Si	5.401504530920273	2.717912721731041	13.648886726624523	14	0.0067560934497531075	-0.0030483024675675625	0.0698638735327877
Si	6.768547440603894	4.087974827239786	14.97689225028817	14	-0.02594091001710203	-0.012582732326272685	-0.008080469800161383
Si	5.407591882502818	5.433981286012141	0.02004419628333342	14	-0.000761561395827861	0.04243197954053181	0.03522594265975278
Si	6.7222639846036225	6.815663215453254	1.3870414100301423	14	0.14400580920776979	-0.08074247725286625	0.10850064451024892
Si	8.11755677522394	8.142069381328456	0.06054548427905769	14	-0.17056558427543148	0.0007373930058184691	-0.004519488931756293
Si	9.476080656687484	9.510532129048757	1.4015041740313554	14	0.07308778249372139	-0.04665399158674697	-0.08168324468950842
Si	8.101775357046133	5.448261266266105	2.6945261940694087	14	-0.15517160539210886	-0.009895670156185928	-0.009516946342528115
Si	9.465048351942707	6.797401160705615	4.060100305784051	14	0.060484224214355495	0.028003964925988844	0.030409233952987374
Si	5.412194116138953	8.179801169153784	2.768112972315256	14	0.022681776913282322	-0.050489052282279845	-0.02089871537375963
Si	6.795344843549044	9.50548925602193	4.1437238701512555	14	0.0022494600445975544	0.050099015605213376	-0.006055210139480741
Si	5.404295247061333	5.438795679354906	5.444360791659593	14	0.024389505066924676	-0.020001142506495935	-0.03304821645358737
Si	6.7392694010889125	6.789355411831097	6.8171156934448	14	0.024469466442381283	0.00015555187186895879	0.044388590689164495
Si	8.167854945672754	8.124231645994078	5.495213841341132	14	0.01404517703237291	-0.014661470977612404	-0.028175971871906756
Si	9.574375880767045	9.504428457488778	6.828229598076741	14	-0.18123875668043019	0.22444103937487836	-0.03201206100956769
Si	7.932390311267987	5.266799437187465	8.140731143178941	14	0.2878516956646264	0.14314320337286013	0.05563383402789615
Si	9.28348860299947	6.636290343486052	9.47459553874107	14	-0.3529248286543822	-0.06545237102447764	0.06390636539547259
Si	5.410235718846981	8.162648872871596	8.183505804031098	14	-0.015148181214716436	0.032932002493116674	-0.04726411487921811
Si	6.781456542753475	9.535632254340866	9.513388125099551	14	-0.030199688869395305	-0.07596227824164693	-0.00620433424804933
Si	5.3813656787678275	5.442679833983984	10.911177872267132	14	-0.011094062345906945	-0.0839018514702642	0.01795479978219008
Si	6.765691444553102	6.780558943994656	12.253022736794048	14	-0.02055907236096807	0.054966117976253684	-0.04412968038342559
Si	8.085161620019237	8.11954781247078	10.835534776864712	14	0.20472271845359868	-0.07703648604440479	-0.0657382779360781
Si	8.124590685497607	5.4525697403084425	13.623558121648353	14	-0.00491929580903932	-0.04381343442904737	0.0031254356271720046
Si	9.45910788015706	6.828768157332034	14.977316569701431	14	0.07104529642739574	-0.017243889161169135	0.07109594720220265
Si	5.426523056325215	8.158781038219951	13.600922312948642	14	-0.040164007537629186	-0.02352124280031067	0.21789371967712126
Si	6.75252122276459	9.47048290442793	15.024889303918917	14	0.38644818537113285	0.024259407137725182	-0.2252141707446469
Si	5.442549274164519	10.913805388633861	16.31165424460912	14	-0.05366539579479078	-0.07242957953176347	0.11327724397402003
Si	6.78147286273091	12.235201321437103	1.3945926635884376	14	-0.05534741289523166	0.09181082854557171	-0.03803050434297031
Si	8.099311040453735	13.64776064818164	0.06037575651375345	14	-0.19912876460855253	0.06508316030050437	0.02800036537854064
Si	9.511364447897845	15.00217189533204	1.39022543762734	14	-0.14802624659688535	0.025351355567192074	0.10362814281803633
Si	8.124835485159103	10.86815841175348	2.753702432241829	14	0.01659314240463966	-0.033746271548007564	0.02524748291225809
Si	9.508231012230691	12.236294759925121	4.063152141564041	14	-0.09836586155928924	0.057076995444095266	-0.010616608087955446
Si	5.4125041957101825	13.592403284728563	2.7374314147410286	14	-0.04223708975726458	-0.01914033644531036	0.044688638680025775
Si	6.750709705269515	14.974493213605504	4.079455799019708	14	0.05865899654758237	-0.02114425593183377	-0.04865096908890598
Si	5.408407881374474	10.86120610136698	5.468334838508817	14	0.019889556535601507	0.01631366325633956	0.03686167986443099
Si	6.799751237455982	12.216971906644329	6.791787088468628	14	-0.00800282241949291	-0.028838031491844884	-0.1008778314570739
Si	8.111061424205566	13.577862184835672	5.3818879180456864	14	0.0019370707481995626	0.02108897716745059	-0.06330215564523779
Si	9.316438637436898	14.815520313429678	6.975925393846296	14	-0.12287466591306878	-0.13553504562000995	0.13579524147840893
Si	8.17888725041753	10.85725666682817	8.158764718242518	14	-0.03266435042928926	0.13175449235726422	0.021971637623857426
Si	9.531584899937457	12.244079389160708	9.486558082199535	14	0.03471712091689548	-0.0027341133974454674	0.13415076251564223
Si	5.458232772477728	13.58827433043799	8.169405343528899	14	-0.046930385408662886	0.015785558223581145	-0.006485613170073529
Si	6.755540418589713	14.989654472640854	9.533004737974135	14	0.09266906350143712	0.0516707322874199	-0.0019897784072625984
Si	5.479709862779687	10.878162557919971	10.937257196205225	14	-0.024363794013723197	-0.17745331831757616	0.04176323504676129
Si	6.784997977856459	12.330705829375603	12.247098584985832	14	0.5407782679919573	0.6617469735312004	0.44310969019549223
Si	8.163187432126888	13.618482608666657	10.816881042658679	14	-0.2102824765978869	0.1257118806338522	0.06605220989566818
Si	9.518773717652472	14.951384125560233	12.223744697279066	14	0.19341962524516373	-0.04361134555088374	-0.2836710784140656
Si	9.490083197325085	9.462257635801647	12.134474420720007	14	-0.1806402033618997	0.2681691131072968	-0.05584646443787239
Si	9.742993887605834	12.502636791633313	15.20669385252365	14	0.10690887320654524	0.10262772573796669	0.12745688981463668
Si	5.366286019619643	13.635406425264783	13.599551434844262	14	0.09989978299328958	0.04010307234154168	-0.12958705057237938
Si	6.708130884146558	14.949980607500988	15.015358437097985	14	-0.16571827941535633	-0.061177137098135416	0.20181916921555548
Si	10.829577985101633	16.287941317398825	16.235244110267345	14	0.2039711843685194	0.3237530676919821	-0.10360731686494311
Si	13.593529363171447	16.289165315706306	2.762368340258805	14	0.23482573376295646	-0.25779136070358316	0.12617853624945907
Si	13.702742652153752	2.9091012573598074	16.16656964522886	14	0.14631286201153867	0.02370996193080954	0.01983659176600646
Si	14.916426733898534	4.090586023629082	1.4768127098963955	14	0.061658190903535116	0.07610728858170328	0.18723637406073962
Si	14.940580300499523	14.948462849599709	1.4019611333994821	14	-0.06518060519213799	0.16622735826874563	-0.23164501937140125
Si	14.902342593373769	1.3414580810617507	4.1377344384333075	14	-0.10119304896932406	0.2782128789299233	-0.10348004715159578
Si	10.573582819086026	3.016731508531102	3.0278943730953425	14	-0.061023642110522566	0.07188784764080827	0.09275545264019411
Si	12.254768974379388	4.143707550173823	4.227837033841452	14	0.15698937685345357	-0.021699100459921728	0.01265472327523683
Si	11.021549879647187	0.07870798716435469	5.368472896595678	14	0.11985721670934302	0.14646995654659972	-0.18569473931077882
Si	12.221247740731801	1.3534532644750792	6.949242230743177	14	-0.013748471478427823	0.018160488207801927	0.04114668399098978
Si	13.574679789236217	2.6998791466674654	5.558845433352789	14	0.07924223729855984	0.1308708034587293	-0.031538977630660436
Si	14.959038194976358	4.085559470579687	6.863480749332237	14	0.007840328563259552	-0.0666965288888973	-0.02295122875083384
Si	13.628323555058817	16.28177236592911	8.213371362733671	14	-0.03427694768608613	0.008671566913263425	-0.01228191300381536
Si	14.946161732781642	1.3603451909450772	9.567227730651346	14	0.018368490628201905	0.03480325294512045	-0.0022918832823799976
Si	10.809732892542982	2.740874929979413	8.225431826056731	14	-0.03901163813313882	0.05167381761380408	-0.0846518428921514
Si	12.187873386881112	4.092854500492283	9.566672851418621	14	0.03152200833554747	-0.060889430412810835	-0.03732087927460944
Si	11.035666660126818	0.19057327247953862	10.718422618804787	14	-0.02432985542349724	0.15543180125050787	0.06157437287009829
Si	12.241386592884247	1.3952846306316011	12.325973035920004	14	0.06376983970297272	-0.03839097330885507	0.020468055232634827
Si	13.555340615977993	2.72522407162107	10.901451165717004	14	0.0410793210316019	0.09579629890233325	0.06891436433805702
Si	14.901575554434412	4.091091942929508	12.261182725510597	14	0.0717510648377764	-0.04436519363075115	0.049106826062168235
Si	13.603843588909168	-0.01047089752107696	13.619641327064407	14	-0.00925083694189279	-0.02121470421760583	0.08552730425366181
Si	14.94547629372945	1.299680570830758	15.005599090592993	14	0.15643196122004546	-0.07701206054386339	-0.11046008387473377
Si	10.787864122782628	2.722368075570277	13.592289044886533	14	0.04051444919276537	0.019167847272235944	0.040618578958231365
Si	12.108329816872182	4.110888075555858	14.939878541469898	14	-0.051568145185146	0.07914890617543846	0.024709093458219082
Si	10.828664066365377	5.485111775310044	0.011590447972987621	14	-0.053791894176542066	-0.0558482642115965	-0.02728791209432761
Si	12.206641360929176	6.812415539944067	1.39046207730012	14	0.023407599945160125	-0.03631943375241176	-0.007815903062718146
Si	13.541990874437717	8.195239867805498	0.03079253342077308	14	0.04852189960183455	-0.04491335328500672	-0.06225494444834148
Si	14.951596285266865	9.524958989099618	1.375431378084235	14	-0.023850087170757612	-0.022968198045946818	-0.003179428838895114
Si	13.56495308268609	5.488179931067466	2.797554211604569	14	-0.0027055741283918233	-0.10447197958410889	0.046027156109694864
Si	14.965337706265535	6.8511918063251125	4.1036909655078615	14	0.07728768303418328	0.01329852804740191	-0.11290751902898274
Si	10.853813151589785	8.166810467117037	2.748300519711473	14	-0.022711344624464027	0.004681468566925622	0.006299208034362794
Si	12.220252222108382	9.540903607051757	4.0819690755444045	14	0.010157665788309017	-0.0032799590569129043	0.020910028237168286
Si	10.750050735070134	5.459097731281683	5.485552414700738	14	0.1607228788888406	-0.13642207695546102	-0.07019014679791451
Si	12.36486354214308	6.684825956372091	6.700085135272039	14	-0.007888408232746322	0.21489632509489265	0.19876855275319977
Si	13.616132531916293	8.235550212065254	5.435140004409892	14	0.17806344161004728	0.08476497152623791	-0.15285503949865545
Si	14.991759749729724	9.534408256033382	6.812464499876366	14	-0.0225164548411968	0.027511855367712505	-0.01723411896095257
Si	13.61244421701641	5.421170103727158	8.251364270197927	14	0.025777387718740614	-0.04114771243311784	0.06212536074020602
Si	14.981804563495533	6.801415875154158	9.562103257737354	14	-0.023004964852024936	-0.03178863195724682	0.062014031879843605
Si	11.333669448055225	8.481753391620998	8.085961298913459	14	0.017663236438885285	-0.433867595011688	0.09953237204304041
Si	12.60628496831093	9.891587282134209	9.83678479791386	14	-0.13291637485143912	-0.2575419634875287	0.21771965584694725
Si	10.810956890850466	5.481978339642889	10.864013137485472	14	0.16199249069592972	-0.046736781178055735	-0.0511724520763752
Si	12.147824162260285	6.858503156215141	12.249840341194593	14	0.05090994222318808	-0.01818208549249117	-0.02441264501480601
Si	13.658890872791012	8.128132120600588	10.969130112132069	14	-0.15134400090200442	-0.07733936225111825	-0.11190375951199694
Si	14.994762625577414	9.516570520699004	12.300399631282335	14	0.07760727142547767	-0.1181052655441941	0.06644944566763106
Si	13.509122439887454	5.472643312551155	13.6016403919557	14	-0.02007673300290829	-0.059153934321710885	0.006837854598933816
Si	14.889759890772847	6.817180973354532	15.004342452330643	14	0.07291860376365564	-0.08906977316376183	0.08867228028126695
Si	10.791731957434273	8.216978077746386	13.631212191064476	14	0.07096687771513123	-0.055561843078932006	-0.036907188428597616
Si	12.198905691625887	9.538292410662459	14.974134174101975	14	-0.05188413402899219	-0.04628375242064564	0.09955551199092175
Si	10.874506882974956	10.850744995832363	0.06858470516260275	14	0.027236489987924644	-0.2837093878833359	-0.04624184340392723
Si	12.260154566932313	12.208371278537086	1.390497981250473	14	-0.005489824079580178	0.021460758996744	-0.019156277298295277
Si	13.604561667916222	13.581762659442182	0.02242528099082271	14	-0.05120613355606914	-0.05656740236964191	0.014529830385220825
Si	16.314102241224084	16.288692036360747	0.04662127953313677	14	-0.07087534636573396	-0.02739332741245368	-0.03781273172235377
Si	13.623851881242148	10.882732151601237	2.7593001845013827	14	0.017804647231493435	0.01912773802924163	-0.00022882837349317902
Si	14.9909600708355	12.23229636545401	4.107558800159506	14	-0.020273936780963644	-0.031124001231988538	-0.015352069866604182
Si	10.86626529437124	13.579706342285613	2.699634347005969	14	0.0292324390479556	-0.05125215634129979	0.031015500587478286
Si	12.269261114339981	14.878776545960372	4.060589905107044	14	-0.2729336283760632	0.09442075755605402	-0.06280438965525711
Si	10.855869468746356	10.891757099121742	5.43150064944231	14	0.10662065230015667	0.022139273690731077	-0.0413014645312627
Si	12.232459565228341	12.247490264444226	6.766360563627858	14	-0.005029082006209643	0.030124098372982955	0.017672235307505807
Si	13.633856027408637	13.584341215876613	5.4527329400827735	14	0.18476322785328916	-0.015692484210991786	0.02199194935588659
Si	14.978834327602708	14.969434020601243	6.8015464349736225	14	-0.07260364336193749	0.014550399227782009	0.049677611443241114
Si	13.69187354718331	10.9926145596583	8.091983370586274	14	0.09660002642541154	-0.026525836477435717	-0.3542288932727613
Si	15.020499229989413	12.295177238503744	9.507202853652405	14	0.09699623375524635	0.08581655360217848	-0.0007157957211292252
Si	10.920839298907527	13.587572571408366	8.163187432126888	14	0.14526796480943052	-0.03572268020760539	0.05340237172053964
Si	12.278726701251179	14.898735878361054	9.540707767322559	14	-0.01010598657137404	-0.11393570404650996	-0.03026396650239901
Si	10.82778278758399	10.941467750382966	10.936637037062768	14	-0.09075693247484301	-0.17989663970331288	-0.21592245322816375
Si	12.275658545493757	12.218897663981435	12.266388798311755	14	-0.2941460185988809	0.1354165176647511	-0.038036417885206654
Si	13.627311716457964	13.568021238443512	10.905792279714207	14	-0.00607655031363797	0.034023950922583555	-0.02771882934598443
Si	14.96378730840939	14.962906029628003	12.252712657222817	14	-0.020695340942935916	0.002998165913824675	0.011815771609272512
Si	13.600938632926075	10.859851543240033	13.632583069168858	14	0.022492286451187407	0.02309778175408228	0.0875883022782925
Si	14.960180593396675	12.234009963084485	14.978687447805811	14	0.0005047079743450679	-0.002306024361640812	0.006046468381392237
Si	10.945302945079744	13.637576982263385	13.564643003114861	14	0.06816180181084967	-0.024658185572880152	-0.29769800059866547
Si	12.273553268404886	14.943550536392346	14.965468266084999	14	-0.12299730763683986	0.11564883152132463	-0.14928300287737373
H	9.668901190059561	7.479298777792832	8.207643050654653	1	-0.44830486560538346	-0.24971988977204226	-0.3440799692425408
H	11.037592417463925	7.6453708681520585	9.35155922887293	1	0.6527182800889683	0.4197473417039667	0.4243802163803415
H	10.593607431396439	13.444168929703716	16.07255025523677	1	0.21794102801501197	-0.011065265966321288	0.16221566263771856
H	8.407334294526063	14.64202263333839	13.435992621009735	1	0.035651203479705275	-0.09501314022181614	-0.0416974147505655
H	2.0304989522714356	3.495820766057186	15.592612358884166	1	0.5832655262968723	-0.6562882598259939	0.6710438332583238
H	0.0690351365397563	5.349819162389645	13.763665127911516	1	-0.23462878709543308	0.2508367779231146	-0.25143687390483715
H	8.4002024643878	13.910659164651447	7.8713372756907605	1	-0.07302196219752559	-0.10305478633164329	0.09743563565445966
H	9.720325438951258	3.9392182329370793	3.9119475506463695	1	-0.16603941046984277	0.08187093537787923	0.09487867141357238
H	8.439566249956437	10.425054704467382	12.71115714329603	1	0.632049678641362	-0.40999025412453677	-0.17192287077393764
H	11.942127166693492	1.1096833935546078	9.778473518545393	1	0.10540477659425863	0.031538720520128426	-0.13012955379493063
H	13.499461013247059	10.802633702359584	10.727006926934598	1	0.11509321566164063	0.10669495724390893	-0.0020023768233313243
H	12.025473291444333	0.9561842138098423	4.530262535654229	1	-0.09052373322230559	0.10303396037855009	-0.07475488718330539
H	7.788366510420881	10.13291078843746	14.111574406830341	1	-0.5124426304796693	0.0034522231133628256	0.5507477288708316
H	7.867681600745746	12.06720347374077	13.335396280112105	1	-0.5639277289629746	-0.2776122687271367	-0.4309321640676749
H	11.760877497321484	1.0744926262156143	0.41547724948734643	1	-0.1345477411770731	-0.25853698124642605	0.4193102537995415
H	14.60006397135789	3.818058720473745	15.332651438352315	1	0.2648235908647201	0.2183639748401764	-0.2443115697311108
H	13.285848828625213	5.787471997213088	5.704860271446735	1	-0.0002437407843500379	-0.042570047896223755	-0.011098176114419182
