72
config_type=liquid dft_energy=-6963.882911401118 dft_virial="-38.50942911918086 -3.464364839227259 3.8922768251050424 -3.4643648392272586 -22.935022599121343 2.1700304423152006 3.8922768251050424 2.1700304423152006 -36.51294812005449" pbc="T T T" Lattice="11.2999927403 0.0 0.0 0.0 11.2999927403 0.0 0.0 0.0 11.2999927403" Properties=species:S:1:pos:R:3:Z:I:1:dft_force:R:3
Si	10.80348235928396	8.31863655567747	6.403265186211138	14	-0.1895076885005584	0.11828524291660447	0.20509938538300038
Si	11.248837673164664	4.6775076949270415	1.5278494184304825	14	0.10830086962687342	-0.00718881047513403	-0.19123315728090978
Si	10.468516674483245	6.145568851768597	7.278167124128867	14	-0.22406565799813674	0.12436924943567086	-0.27697334905507986
Si	4.95164551880672	4.060731491175987	11.249312272859756	14	0.1997538003118805	-0.5722750794953674	0.38656079978415536
Si	1.2131898205840885	2.8886284441956294	0.3803102956689888	14	-0.007398098448194081	-0.2890009797427326	0.04952694467148043
Si	3.872428412151628	7.92130621094304	0.6981090314986379	14	0.14961647523739693	0.28467895169956364	0.33963632791772885
Si	1.6071866674601287	0.3454633780564516	3.530524531808371	14	0.015420461268120118	0.1535345826347706	-0.18253767908816898
Si	4.852002182822755	2.753774330832889	4.811796808652767	14	-0.0681222067889194	0.13309506667118942	-0.14328332861280818
Si	9.615378522583336	2.8917020422209907	8.372876520830909	14	-0.11202434435151189	0.1957649875182028	0.034512718043943715
Si	2.2997519225203757	10.826003244815377	7.25121664144325	14	-0.06530196136324896	0.18857771970626086	-0.1283583193398806
Si	4.2329207805526785	5.957751672432071	2.0378519907784423	14	0.32340956802121035	0.3986637638576884	-0.28486767083006254
Si	1.8206209303389154	8.552060505713847	6.760265856855436	14	0.029317542634052503	0.026775490804022098	0.09288889300630981
Si	10.004007872907733	9.693427572440587	10.233714125332552	14	0.1714754984482319	-0.33957487850057727	-0.3374496028429429
Si	4.642534217395813	10.699759725920744	6.849614899452988	14	0.269631300702865	0.17082038081265816	0.022160356754356295
Si	5.566862323559613	9.54548806748458	8.759946472157147	14	0.12427231876510127	0.016947954938820096	0.15193458379404243
Si	9.623548417334574	9.97451489185555	7.823391773848341	14	0.12489041248406489	-0.08878232358896929	-0.14622904397810185
Si	0.6749643863679554	5.845282844687865	9.149084322154856	14	0.11719946513990594	0.03733553457493429	0.06714364410407103
Si	0.6042196518180333	3.4490741841362884	9.110110647193562	14	0.13548285218201095	-0.12025445248130588	-0.06088917330227881
Si	8.110818389190612	5.888313217042928	10.235058824468647	14	-0.19090868378950712	0.19110408779383836	-0.1676612637057922
Si	9.931394119558567	0.88862803909937	6.884012077354462	14	-0.027562506142519424	0.23183630960722026	-0.060618693022599236
Si	10.709534219641105	7.9424371973674015	3.8298274395206966	14	-0.21957470833543408	0.27541011702042983	0.1753828072032609
Si	10.787176469759705	4.574417861157285	5.4639758896591815	14	0.12443686950559076	-0.032072996205655194	0.09800590681446851
Si	8.377328717970588	8.953978647500836	3.9191764821182495	14	0.0005373610119109486	-0.8866394990002967	0.27628737815566434
Si	5.938688584679185	1.3808704128574003	6.441187961847585	14	0.0097840841852915	-0.0003576407500325978	0.1326034713339771
Si	5.582784013330696	10.755242690275617	3.1642691671097674	14	-0.2265511455111239	0.002242003839169125	-0.1540747718625337
Si	2.8381400766319693	5.888075917195381	3.9941971339211007	14	-0.09733073455739762	-0.29359657339196527	0.06897272842882439
Si	7.548926250179194	8.937254658245193	7.744280524673501	14	0.057580417865780255	0.04943232799569899	-0.32150900696855683
Si	3.931323974314072	1.2916682701654723	3.035370149921165	14	-0.038920878115337586	-0.10066597237869371	0.13316525784642946
Si	2.253060352517456	0.10514643244849152	9.530221777292436	14	0.14551196270431255	-0.26142021875244015	0.18995943170530843
Si	8.477650053518971	5.1371009996605235	7.979467273577365	14	0.2614778115116114	0.11890565063035619	0.0622343756057803
Si	6.942839839560464	8.1126376880218	5.669726157474564	14	0.24922855154536194	0.029360737203430992	-0.18050007812195162
Si	4.348440606336766	5.526532649469482	7.360114671481521	14	-0.002787592388104547	0.07202848710182037	-0.04542320346999208
Si	5.784726183592597	2.0779443650210268	8.734385888578586	14	-0.0030737564102370288	-0.02914656413026265	-0.06406088882521349
Si	7.876693839604337	2.3581954849732067	9.88144815164644	14	0.09133851649826051	-0.29404137461235086	0.2501934873720135
Si	0.9019631605321979	0.9574325648957827	5.878007623663774	14	0.0973561885000671	-0.017227434087120186	0.05915779097969111
Si	9.143366525828265	3.431954695134734	1.9781654291241777	14	0.10964195816186266	-0.32986509925903806	0.007376758274036853
Si	4.270154256631967	7.827572771162252	9.679709381253865	14	-0.2979401987198234	-0.026127315152812764	0.0926963172178307
Si	7.585018426991712	7.803424686676231	1.9873523232220416	14	-0.13965318501129112	-0.19298613688818675	-0.15783809871963447
Si	1.5731962892973066	8.500747238680145	0.9704614565253485	14	0.13997148784992547	-0.05815634545749344	-0.0553083320943654
Si	3.5994318875387203	2.3048595192389913	0.7992643065112555	14	-0.05611000273318757	0.0912636973334442	-0.050158665248640814
Si	4.9915683931582	9.312154517390125	4.993342492018427	14	0.042896064050818535	-0.12894607401606645	0.003137262711644686
Si	9.243529661478284	0.9948818708364109	1.713124099400441	14	-0.06829858461388155	0.5307728116386011	-0.05709705006559242
Si	8.156990159527478	1.3814354124944153	5.389881837261035	14	-0.053955930695967505	-0.1350514207092901	0.015252310980182435
Si	6.578991373315543	5.622571287769292	2.265083544793135	14	-0.3600727585549259	-0.1317634912258847	0.46215540996502114
Si	5.74679210796341	9.236580165943	1.3585190272170868	14	-0.40928911370373244	-0.05600690140984964	-0.3131151194298694
Si	1.2082743237420581	3.241832317279186	6.546255294346895	14	-0.0707164520569488	-0.10571768011172065	0.1999548607479161
Si	1.4823669476507748	9.225404473122843	3.2604999052861623	14	0.23608506114876496	0.08580781184408998	0.09706771048314647
Si	0.11357396703420725	6.690601401611486	0.12668647861005136	14	-0.25911290883813926	-0.13317194272026184	0.11636077058447361
Si	3.240702318005156	4.24992726962683	5.704326735245363	14	0.008779810447241661	-0.1723874695052884	-0.09922615339941078
Si	2.9452414078245326	8.127881378228464	4.742132353408818	14	0.24037109371745183	0.2625610181829898	-0.36903306059564195
Si	0.340807781047448	0.8843622918399068	1.4858247454293068	14	0.12614382632763707	0.06927740440926193	0.10923700907393934
Si	8.800219646283574	3.5080601462406547	4.388984980288962	14	-0.042234004430880406	0.2154820228868224	0.06089380129185509
Si	8.35481913243191	0.27210269518715	10.877621611653067	14	-0.4439190741502749	0.30989275313212783	-0.013531470189407325
Si	4.3745774895450795	0.8307121863075103	10.332735961715802	14	-0.11985953070413113	0.2821554118278383	0.03796879781528675
Si	9.200713988985287	7.641857390475421	0.16510306392924928	14	0.39796108077369197	-0.033732387579278766	-0.37508467118767447
Si	6.122482966600164	10.611179082829533	10.778803175139144	14	0.24745243199020364	0.0232543620680793	0.38083520534671766
Si	7.393110650283198	4.119344553519923	0.36986797237767755	14	0.22616547971310166	-0.25488035526011144	-0.13834680639812386
Si	0.5014948078137881	5.714089928972982	3.625263670943046	14	0.027975425656935202	-0.43271496849666563	-0.01804144603147907
Si	6.532548403152911	4.53580578596368	4.505872105194625	14	-0.03941787277372221	-0.28626146702411476	-0.12916873173679128
Si	6.626180142999037	5.869702128999653	6.514852614521602	14	-0.01224077531869299	-0.16510404235437293	-0.18590377017330686
Si	0.7779208802233768	10.469544973822613	11.178212718537788	14	0.05795631346358591	0.1752141426942592	-0.013800922026958843
Si	7.913497915959494	11.263154763966622	3.50108805071989	14	0.22324444695888146	0.36457065020199286	0.19255419119440187
Si	2.6553174940866553	6.939506341702075	8.289414774451053	14	-0.10181319957254378	0.06227319929611453	0.07163767909315787
Si	4.446942643053961	3.9082832891166	8.996929919906718	14	-0.1077275131404804	0.1394045591268328	0.03745714785657729
H	8.629702755832447	10.04904964397057	1.0648197859046755	1	0.23145012958813402	0.027198694739718473	-0.0871157331204493
H	5.358739057268767	5.5749644183544085	3.9468388643465033	1	0.19158899825721828	0.24547345222528566	0.19567242772667748
H	6.771961349341646	6.546695994063767	10.108498905777287	1	-0.5952954709793131	0.2358544330015477	-0.16897458430332382
H	10.356985746136486	8.2165524212616	2.346285292624931	1	0.05330338416571393	0.1601587783816001	-0.35448703224690414
H	9.606903528028111	6.831150711315339	3.724240307355334	1	-0.30112631243255095	-0.11243906363965175	0.39098850025598236
H	4.3370841136327645	5.439816505180421	0.35322534306976366	1	-0.27359543088546934	0.1315045809201458	-0.0055361039753428435
H	11.050488900594177	8.563281398504964	9.786889812395609	1	-0.10197029410760483	-0.07806647083565613	-0.11627438144571664
H	8.050499027942891	9.778866817549996	1.5160296260241286	1	-0.03953151562887276	-0.06566551565551791	0.18703968450374828
