72
config_type=amorph dft_energy=-6881.903283844716 dft_virial="41.78725871807235 -7.101217876301364 -6.6811316611606175 -7.101217876301364 39.255421738795945 -8.970224210729956 -6.6811316611606175 -8.970224210729956 0.2515486318208064" pbc="T T T" Lattice="11.105996452100001 0.0 0.0 0.0 11.105996452100001 0.0 0.0 0.0 11.105996452100001" Properties=species:S:1:pos:R:3:Z:I:1:dft_force:R:3
Si	-0.2587252933481216	-3.02862855508022	-4.573364933401745	14	-0.35430139844278946	0.7877715005719825	0.13367896468939502
Si	-0.14629262766564208	4.671850688739677	1.2324613018803126	14	-0.33732953222449197	-0.6276924264553071	1.5050301806283721
Si	-0.8858209406173674	-5.185155406960351	-4.107337331478015	14	-0.3311257121975067	-1.4897465021632836	-0.35619013241097025
Si	4.7259913108440195	4.234359944699618	0.8105922524497775	14	0.30481841967228357	-0.337712626917194	-0.891038145982006
Si	1.042260006641648	2.8696917504538617	0.3909188585178227	14	-0.5394855162369868	-1.0224146858572085	0.456162934795352
Si	3.867180153598159	-3.2698763418116714	0.7781882866014854	14	2.6221769848959045	0.2738695107125971	-1.0398935740446391
Si	1.7345578484815274	0.33417276964581777	3.391990104601447	14	1.247727844156681	-0.16165619012005436	1.059893945219539
Si	4.790185080936802	2.5523834364205578	4.795408231068225	14	7.722810281059949	-3.9097726452573336	2.8019607530756625
Si	-1.572686839592525	2.4274898427188223	-2.634360128032444	14	2.878934247039724	-0.7489719786277559	-0.4325295918030829
Si	2.306804311072787	-0.6190504634393444	-4.001295056154073	14	0.7181721937766381	0.5929470233798899	0.9923250402955155
Si	4.234909691523996	-5.029746977406826	2.3382564930251344	14	-0.6762377231155549	-0.4109058247290416	-0.45996354267959494
Si	2.062164753024864	-2.953052249223679	-4.3772063816661735	14	0.3506550568777555	0.18647172733852757	-0.2177777628271826
Si	-1.6240465201852612	-1.2314873059914633	-1.1064837629248518	14	1.0984276148736625	-1.818590358389159	0.8377841270384389
Si	4.744586080703771	-0.4926053620332504	-4.206905921470027	14	-0.8005231545177889	-0.18710679035260414	0.7283769107923058
Si	-5.462186714260469	-1.9240816779366139	-2.495431886614189	14	-0.05975660140875359	1.7672875512730524	0.9255146114409357
Si	-1.6626942772389242	-1.3918545629608519	-3.3660476074889867	14	1.7432405174347714	-0.011430620032314329	-0.861521856906706
Si	0.5221828517844831	5.322598776652961	-2.316853016662647	14	0.657572526933408	-0.22003647885093267	-0.33341142482711833
Si	0.7373604224442754	2.943902018746794	-2.0211858473159054	14	-0.019176074809260413	-0.9343849247954465	-0.3316363337140881
Si	-3.960015177941263	-4.729444165140977	-0.6709143562710063	14	0.07068842700895919	0.9078691156287594	-0.5252035404046284
Si	-1.302785582014655	0.7970418261785704	-4.37517842671402	14	-0.3272011770368327	-0.7273880636861768	-0.12484310414617415
Si	-0.3375823105566125	-3.183431707827106	4.204560335019344	14	0.7889184706553006	0.650958872718391	-1.371699857820389
Si	-0.7305480042205572	4.221212666099622	5.05581830407813	14	-0.6020145405124562	1.0536929534084059	0.6493215928505208
Si	-2.441651098794895	-2.5258911924837184	3.488353504017383	14	-0.5556472271689057	1.1461532431578472	-0.40988175348002653
Si	-4.935346007563975	1.363719742148747	-4.588724526494999	14	-1.99230271846592	0.3259127961609065	0.4392787432684716
Si	5.542589686175092	-0.4919101266553489	3.08508366684518	14	1.4513210760431388	-0.5065802532391998	1.8955021458255366
Si	2.3371458933799243	-5.468361648287837	3.84058351329467	14	1.939554435938826	1.1688609882348628	-0.6304843897224558
Si	-3.686155743227865	-2.566254825989231	-3.7675782456167903	14	-26.026426265602815	-38.38277945331029	19.51430654234175
Si	4.094357753424445	1.2702161368192266	3.020913219344946	14	-2.138019341153716	0.3694274681517526	-1.5930254888788438
Si	1.914948106454407	0.6591097926420693	-1.880937102919496	14	0.025162122215629176	-0.7793884116756398	-0.2865687141098725
Si	-3.17285102500719	-4.9087171598707755	-3.3804620802841665	14	3.602481336488131	-0.28289280483365675	1.4363747265960538
Si	-4.148576117503953	-3.1397662615763844	4.961949311465336	14	-0.5177254805809777	1.2551681087321256	-0.25423063694571
Si	3.788917307199856	4.839602322750067	-3.7397654987017965	14	0.5258365465344488	0.3558126941499725	-0.419180670091406
Si	-4.79675649903751	3.208221402507838	-3.084375104271536	14	-2.3157554810565086	-0.16760469938874895	-1.0118505283177839
Si	-3.353437859117272	2.986668989884541	-1.5113428681893504	14	0.033992583437677755	0.8555553499007704	2.65186116714861
Si	0.8734166531800168	0.46991025828338395	-5.479888562005471	14	-0.6614410119981028	1.468928262386045	-0.038146718303441005
Si	-2.0362633480992764	3.2641323204466453	1.5932662510182662	14	-0.6154945885954606	1.09376440115451	1.583058341994758
Si	4.793564635657177	-3.864297036919194	-1.5230685792434775	14	-0.8467027771729685	-0.5142604019410141	1.4946364873716733
Si	-3.7937995032401988	-3.630347000456417	1.7920380437190162	14	1.5180957665337687	1.1886728973897958	-1.4316104684378195
Si	1.7152689538435204	-2.7404490485414836	0.7888189464054356	14	-2.1432679955542664	-0.1159887316446482	-0.7241032195291557
Si	3.17211136564348	2.3461106537160594	0.9814668926624978	14	2.6928355870831497	-0.014901355103982222	0.5162229266318831
Si	4.932691674411924	-1.8725676239931934	5.093646438593629	14	0.4934781576382571	-0.17792023104371507	-1.9910091953793536
Si	-2.031777636132273	0.973730455533965	1.3590163526512826	14	-0.0917167260908543	-0.26996143062597205	0.6239154727400095
Si	-3.094852501324447	1.3158606716377124	5.281475492990125	14	1.9785735302773928	-0.0445032619864431	-1.9239827936778808
Si	-4.765772990135441	-4.823035507842469	3.4475711744456263	14	-1.6601117973342758	-0.5716528720078914	-0.3766080510898622
Si	-5.253267372601435	-1.7313104551189336	1.255077553055369	14	-1.0061802126447295	-1.096213636082483	-1.2942489095983762
Si	0.838972515783474	2.885910947672509	-4.9746134792196655	14	1.2286435578073498	-0.6772952187337318	0.2867070395760965
Si	1.6712858760942688	-1.9422599729294114	3.0299257354658247	14	-1.926017566428246	-0.9870640445894284	-0.07174155174809185
Si	-0.00514762935554835	-4.817198196107245	-0.3122217676582421	14	0.3563158594611255	1.963843410787733	0.6100880683282531
Si	2.9479168364642283	3.9600118461423275	5.292547060853223	14	-7.426746989223831	4.77244430046321	6.902535895472781
Si	3.0195593983774347	-3.1503980319799796	4.393383376098303	14	0.20220097835559747	-0.48864319408371876	1.953290051890653
Si	0.3257999589205796	0.5624554161190881	1.4076983774994178	14	-17.24817853617474	-19.16136551572385	-74.61352318481408
Si	-2.772043387248418	3.4747075661766877	4.022810703080727	14	1.142873798321998	-1.1649511083745137	0.089141764112726
Si	-2.7508675838131986	0.7270318457438223	-0.8870903560118424	14	-0.27479613706997846	0.7248305852242255	0.5485026397052781
Si	4.104387578820337	1.2133212275947636	-0.9554377687777109	14	-0.26261346873152086	0.4160781173015834	-0.06126918266859671
Si	-1.9337860976364591	-3.512838894395328	-0.10857111071608441	14	-1.307145059663175	0.5154153424508245	-0.17820870906063566
Si	-4.870681343221623	-0.17146881102290754	-0.5924671503315979	14	-1.902506350938684	-1.3601244845585503	-0.8925630685473859
Si	-3.7929754383034533	4.376718828421926	0.5248227471411473	14	-1.3721731983098282	-1.0295510457838117	-0.692944508375345
Si	0.09938089865197165	-5.425661313128803	3.398256107799721	14	-0.3889992360697838	0.1438201754036551	0.05766475012028111
Si	-4.881872855846404	4.230717177863329	4.473777463215764	14	1.5833319076008217	1.1659332706068102	-1.0983641085722546
Si	-4.867142972751984	5.09418174762262	-4.550090096637079	14	-2.1934397734400397	-1.7534722310563005	1.6832800273741302
Si	0.6259173010456779	-0.8643163996871661	-0.3229257270387761	14	1.0809842079396497	-0.2512108737471961	-1.075644279300234
Si	-2.9789780873414617	-0.11992810268800187	3.327487587807295	14	-1.2073452926668393	-0.3143592772942891	-0.05100173068311737
Si	2.5582640615419447	-4.533110138661463	-2.6293202268424807	14	1.031246175521385	0.11591854046940817	-0.8374159447565938
Si	4.218497249967084	3.5572195668175643	-1.8079584896331016	14	0.8225343871635766	-0.6298308147500742	0.8797445658632556
H	28.89343033756101	28.685644918139737	30.54470653984753	1	-2.6366114272737478	0.05375898402844417	1.9718318350174326
H	37.09009551667032	36.714722831986144	37.870420596989185	1	2.5287705283886486	1.6800026394225374	-6.142741363220926
H	44.91349815042134	45.20086136622085	46.56471660152632	1	16.166629713506786	21.511784638706594	74.07117499991364
H	7.887099965802404	9.21189763278512	6.992554154372267	1	25.741161616111324	37.8956904923926	-20.34866287176737
H	3.460789531422916	2.3691644811513286	4.37335371149694	1	-4.252385798914729	-3.930219103205279	-1.2260878791191225
H	48.21563408012743	47.926923706958284	47.39885356645455	1	-0.005516306464377703	-0.08018711850371425	-0.28718140850766377
H	18.494645969936414	17.439896159684736	16.607850453888435	1	1.205708784130565	-0.10398706912072897	-3.8104909559830076
H	62.6944183689632	62.039201228077594	61.78330574262546	1	-0.5334560171507076	1.056074568266459	1.4193146714652753
