72
config_type=amorph dft_energy=-6882.748309801468 dft_virial="-21.897308400001197 32.949097539048324 9.438104665916656 32.949097539048324 61.34893807161736 -2.5104553455716476 9.438104665916656 -2.5104553455716476 65.59633671991169" pbc="T T T" Lattice="11.105996452100001 0.0 0.0 0.0 11.105996452100001 0.0 0.0 0.0 11.105996452100001" Properties=species:S:1:pos:R:3:Z:I:1:dft_force:R:3
Si	-0.37263061416014964	-3.3246688859077524	-4.570329664571386	14	-1.5483103678140206	-0.6481239719923957	-0.657277621153187
Si	0.033923266162939454	4.85662670471149	1.5408503901629351	14	-0.7260068659081933	-1.068798968495872	0.8616838365418753
Si	-0.9790169098451644	-5.504861505627663	-3.6570147191371993	14	2.3540855191692764	-0.4154451111717629	-0.8166666106019347
Si	5.053161749726788	3.912300485384106	0.48143272960243777	14	0.4277961869086903	0.5269729750859542	-1.5113579279317886
Si	1.3111450655441508	2.8978598892553227	0.6909573480681112	14	0.5298700965606971	1.6452608358945682	-0.3397121755246732
Si	3.858484158376165	-3.339851893657418	0.49254872145134465	14	0.7277073949669391	-0.4747710524393917	0.06042483168146008
Si	1.4984277049152035	0.2838070757355443	3.294734893670407	14	0.4039399290851643	0.7597973604677074	1.2618689234174953
Si	4.599181932754297	2.721974223443415	4.727286270030334	14	0.27311849084858186	1.064220858362816	1.5993666059299252
Si	-0.998238057904814	2.5387885861635424	-3.093835192049435	14	0.8356979321816709	-0.03779679086936885	0.6045964444749489
Si	2.299818639304416	-0.7008539015065776	-4.140776376195642	14	-0.86096726948915	-0.16064703128189622	1.0834576112576322
Si	4.073532899477113	-5.48313262356913	1.7460980893949047	14	0.42316999710614783	1.1500006451589169	0.9095141088125902
Si	1.7870725527052822	-3.1261325403317866	-4.683554187800899	14	2.0109599442215744	2.140901807328134	-0.8887313502887692
Si	-1.7069183551111864	-1.337435180345562	-1.2414460530100615	14	2.153891031405522	-0.976253575160334	0.23896829865477903
Si	4.57495420149404	-0.5044321376550917	-4.302659601680743	14	-0.4995577932782793	-2.7204227758367425	-1.3762903092589813
Si	-5.201635595095623	-1.8156449497776002	-2.865460365805612	14	-0.813026439689669	1.6483559324789627	0.8990265702117061
Si	-1.5918469046716877	-1.7378940898157385	-3.458972590403352	14	-0.44231264754624633	0.8731262836586624	-1.2804040216704429
Si	0.9362110677198355	5.400304102029368	-2.0294153906869115	14	-0.6366468149537868	1.5900093252277783	-0.41496354314529926
Si	1.1469917743842415	3.0175436600213787	-1.7734732600496859	14	-0.23163782027650484	-0.5258352609817887	-0.19923829369519083
Si	-3.791116294497371	-4.660872411246776	-0.5404366675531547	14	-0.10828904254240075	0.6820188534279079	1.4796191754177526
Si	-1.3486644533582801	0.5104604725292915	-4.387574939953854	14	0.02591725584815667	-0.44597313019054113	-0.0269942918667667
Si	-0.5576254182620698	-3.1792936135490533	4.066982582769664	14	0.0629393726845649	-0.513928986465247	0.927308985843867
Si	-0.5213743352427702	4.092607448383594	5.3645983234358665	14	-0.3604255142048502	1.4916853726852073	1.0209764095411178
Si	-2.636754580867516	-2.4358571004458343	3.5049269825228517	14	-1.1063990698082493	1.1278801405370225	0.0707647888369676
Si	-5.438545379612884	1.3142114311645754	-4.678837471107693	14	2.5870975952394	2.6892231841083416	-1.240504837980789
Si	5.4380767065626054	-0.18799675494292278	2.8200079647257477	14	0.9329057679047653	-0.3884970992007589	0.25721723288559406
Si	2.742313745345791	-5.293710969281403	3.877922983966275	14	-0.21313203262420702	-1.1650045873651729	-0.39179017089480456
Si	-3.5746082254626175	-2.8789430454984615	-4.063303166145084	14	0.5618019390842761	0.10109406141449838	-0.7760578018439198
Si	3.794249296096509	1.3158573398387767	3.310214431525344	14	-2.696256442711607	-1.8740028202489902	-1.7812890195149829
Si	1.7205431915586227	0.6483125428913376	-1.9597119357542414	14	1.272624885413803	-0.31360774320920975	-0.9679663884924327
Si	-3.0537225540637394	-4.936252256874467	-2.8808699358829006	14	57.64573525377543	-20.049925887508827	-31.9784345515276
Si	-4.3672065424607025	-3.425832296990286	4.768746065385669	14	-0.51537137654985	2.277225410949833	0.5475423318682029
Si	4.1880557136918775	5.318912696430508	-3.3702179091567497	14	-0.5971924324845184	-1.0610776821089352	-0.10437350625034723
Si	-4.9955205175407436	3.03476350752036	-3.090581135088969	14	-0.3929417689676989	-1.2201614813561814	-0.43725528338151504
Si	-3.0394224730320154	2.7050198092596394	-1.9472110261477575	14	0.12636262739038168	-0.83919309275388	1.5990133360589367
Si	0.7661105154598268	0.42693338381269264	-5.4479132876202305	14	0.556850504458735	1.7159608328774683	-0.7733568557051044
Si	-2.1841052622699864	3.508477569588588	1.8488374413739914	14	0.14511935492192593	0.7786834145968552	0.2980790384071114
Si	4.898848371423439	-3.496377586454025	-1.7293802329355585	14	-1.3668463823075454	-1.3105713146128044	1.1645343322021178
Si	-3.732159001731753	-3.4468248514840454	1.7097115132188894	14	-1.1218154173078574	0.4742257210009883	-0.40603049482097675
Si	1.660927313203395	-2.7107882638168603	0.7270262927455964	14	-1.9313279273564798	0.36947734759496353	-0.011453759980195663
Si	3.63596885586047	2.3316195495453593	1.2302556509849254	14	-1.1031823599422121	-0.15004867804171385	0.9073096431110951
Si	4.899591362586085	-1.7708933370738633	4.393679906203573	14	-0.10763083958044285	-0.7609350745718729	2.31369474014241
Si	-2.1360607216182017	1.171512703950833	1.5177421433450504	14	0.5582936658749341	-0.06735164652447101	0.4680360420532639
Si	-3.0936874822966214	1.1299784984192693	5.213454596519947	14	-0.6564378981556266	0.9610200332489885	1.6913931502118573
Si	-4.992841751196497	-5.019617198042865	3.152151668819766	14	-0.2739031921922911	0.43158136816101234	-1.861753046061677
Si	5.440432288410095	-1.7438291343197405	1.1513364401963029	14	0.9860083487449757	-0.6772872483072393	-0.9543207612268108
Si	1.1048711722400069	2.8661878085732244	-4.708188398531303	14	0.8305505793307343	-0.7657556399366185	-0.1901270677721821
Si	1.1370197001699007	-1.9693963646604724	3.076438759206865	14	0.9392749100038361	-0.9357023591614905	-1.144401034882166
Si	-0.00263989535666417	-4.481337315000708	0.009263511640696612	14	0.8107147588963238	0.3270034590377133	-0.29536600807329116
Si	3.152253843987126	4.3310953949967	-5.353170253086656	14	-0.3448952667395597	-0.5990204883671437	0.016685445085632973
Si	2.818710784340142	-3.06226417593505	4.289045871229758	14	0.8456974749927907	1.2026275715148995	0.28300644768880734
Si	0.27864167678567253	1.0563579585379437	1.4809402029017267	14	-0.9663609903305322	-1.584086012791221	-0.8237662037224596
Si	-2.5263776351283207	3.393147349431756	4.510155154594617	14	1.224406119129214	-2.1017544148340916	-1.699895538395055
Si	-2.828396323846018	0.3874793314166074	-0.5645555600481802	14	-2.7685862633569487	2.947220747458601	-0.3689908944683915
Si	3.7323267022781796	1.0345935372907633	-0.5795908580450332	14	0.38704365336327917	-0.9265474244480392	-2.328505849449655
Si	-1.9928122475800802	-3.127816209393925	0.14806958709797804	14	0.2552230835992872	-1.2944653966663329	-0.4788819927357765
Si	-5.339726444381389	-0.3049739943736017	-0.7999671456440536	14	1.1294551996561455	-0.6547746501240228	-0.10142264867441328
Si	-3.6894631089713004	4.173956651195937	-0.06167937249602778	14	0.2995150007284141	-0.8711503892201287	1.0679597597193755
Si	0.3154091886399948	-5.428574415998188	3.8725132530944575	14	0.23128737862136864	0.17687122007309464	-1.4837452852355262
Si	-4.466286468608822	4.318903232091584	4.586305640467732	14	65.27531699881628	-13.79409831343917	10.674606567546283
Si	-4.748927414716896	5.085677886139246	-4.196275261666077	14	0.5320321390244097	-0.3136373109203915	0.20892184766246452
Si	0.6247267382260128	-0.7308878477119914	-0.5586393957381465	14	-1.1932872601078657	-0.19463987183010603	1.7782111493362334
Si	-3.3173222692546878	0.03779259532685109	3.2718654257762427	14	0.32135628331254	-1.557834770361977	-1.0646443194090447
Si	2.7052419291886816	-4.047572632770328	-2.9367764114231267	14	0.6066070488353046	-1.4727692366238139	2.3490284121150764
Si	4.140213302175521	3.207511729334549	-1.8015225646891095	14	0.19062689064641888	1.125507781658122	0.6242137209571466
H	35.09559848942845	37.29501003600872	36.036801702553504	1	-0.3765478872253707	-1.9099571570459413	0.7999315431836228
H	40.09448967689241	39.21469929234853	38.632150907448306	1	0.18417753006135942	0.3934058534779856	0.5425685286263764
H	12.757024990665638	13.768830133836339	14.358742904983954	1	0.23133237296447123	1.708231061842975	-0.4025990976607072
H	51.79193263825006	50.825151204696176	53.035800909086326	1	-39.061824566324916	8.1321798703602	35.52269629336736
H	60.309538902832145	59.028803166173496	58.79265192121391	1	0.3897050044801645	-0.2006806837797939	0.14164373475014974
H	33.17842696248434	34.44243928968542	32.38046111740095	1	0.22229288087989463	-0.2822076052658373	-0.27639330769485443
H	50.27791100371646	48.91233656016022	48.88804996711876	1	-66.89422811894784	14.410119978625263	-9.664448597860753
H	18.036397007927736	17.79047137549066	19.565596097212772	1	-20.59315904686046	12.402852912975016	-4.754459418748774
