72
config_type=amorph dft_energy=-6823.025168208896 dft_virial="-25.70072371313179 32.27872043524587 2.2274631347732408 32.27872043524587 -58.734090043840084 -49.07210709560292 2.2274631347732408 -49.07210709560292 53.89303662444866" pbc="T T T" Lattice="11.105996452100001 0.0 0.0 0.0 11.105996452100001 0.0 0.0 0.0 11.105996452100001" Properties=species:S:1:pos:R:3:Z:I:1:dft_force:R:3
Si	-0.39977589068837244	-3.0428142443484867	-4.813753116007804	14	0.026388025232275777	0.18264797950640335	0.6015093183170471
Si	-0.3291406426533713	4.944159726348362	1.404163338828714	14	0.12984158999907403	-1.697258098557647	1.3342051718261376
Si	-0.8667497235098213	-5.141243407588393	-3.99146735989361	14	0.03785875450758442	0.17414893376012183	2.126615460616731
Si	5.222800292534389	4.232198717790039	0.3672164408897509	14	-2.045909235948879	-0.6961326789723287	-0.7032268727716814
Si	1.0599118774026157	2.927342978036713	0.8314171063971103	14	0.08303024676673401	0.338821801752306	-0.8834803818934307
Si	4.004352536977336	-3.1824410529435787	0.587877041997945	14	-1.4005962534030012	-1.3534650646688349	-0.08419752858208122
Si	1.4954624038624929	0.5314208196333399	3.465191948416528	14	-5.5895055757317875	-7.992305313180847	1.5445100170403099
Si	4.96598967297461	2.5711770036168016	4.754564818515982	14	-0.7645449064413607	-0.4294733189090229	-0.43527244695861683
Si	-1.287803592800772	1.9305575844678335	-2.3428443801594967	14	2.0350473444133814	0.2861419106267279	-0.21072470671295235
Si	2.2694326330114705	-0.6515599362539316	-4.0531800503789945	14	1.1962918537849907	1.4169901351453293	1.3485108018274414
Si	4.153667106277595	-5.295744477231782	1.96911871474917	14	-0.02815900257679378	1.65664389047846	-0.10058652522430114
Si	1.7774092251923104	-2.791104608959157	-4.1184977473127296	14	0.8497099419554137	-2.151510959210661	-0.7521742903040004
Si	-1.8151285209425774	-1.3842269645975496	-1.0534959432522377	14	-0.5728854598983706	-0.35333800527932996	0.02910619777673633
Si	4.602527058885669	-0.7493027004292184	-4.377616192935256	14	0.7852127365573711	0.328856454641944	-0.7811971842683639
Si	-5.189632234130192	-1.8838602011856889	-2.816991576089357	14	-1.3001858488931302	-0.7073640383423316	1.572796289330451
Si	-1.7010965917709955	-1.3954007076280073	-3.559843913779196	14	-4.566085073473337	6.658764257858902	-4.262878479726254
Si	0.7110414320520888	5.4805027236092725	-1.9260607665043783	14	0.16180608556021897	-0.17669227114281233	-1.5950309510285594
Si	0.9816734641965069	2.9516528936707145	-2.057258123792326	14	-0.5751259210743476	-0.5460071248815425	0.17568799740476249
Si	-3.9041842231769106	-4.908156307049944	-1.308275276060928	14	0.4389151889762027	-0.13082606622615872	0.2889654984893145
Si	-1.012691401687577	0.7338087247788938	-4.410601002397993	14	-1.8279185856011884	-0.16806749834637558	-0.05803807461276662
Si	-0.6401107645114618	-3.3644272426066246	4.050742284157758	14	0.2504140882084822	2.389711268706312	-0.5630170434585782
Si	-0.3165142352869788	4.431237054405639	5.545186268145593	14	-0.9639356666820365	-1.3146277474764019	-0.027815245795489975
Si	-2.657262913915964	-2.3106980734288936	3.814872020908413	14	-1.4065504191034002	-0.061872363976703454	-1.3283559072228006
Si	-4.989564371643483	1.2093452808649117	-4.733998734285984	14	-3.1873568421497915	-1.6217383075415979	-0.1170755378634748
Si	5.419210950389423	-0.42461000935491333	2.8918682041694153	14	-0.9071468921443299	0.5818123375699246	0.41646969664184197
Si	2.4403539184092895	-5.540866035525727	3.809824345520934	14	1.2705057804089368	1.5994658505952828	0.18533812700287425
Si	-3.44759116523924	-2.4349586253328592	-4.295631727125854	14	-51.37479343708127	-146.61731584847655	-49.58360180542575
Si	3.6960478542677504	1.4533473547164841	3.0106501680235604	14	3.457847663361182	-1.1263637026191993	-0.7483166038816502
Si	1.943798153438027	0.5384831227772303	-1.9791474295454166	14	-0.9015107721720332	-0.0025903886100491894	0.6897578804415536
Si	-3.192498643330601	-4.67726153021114	-3.6804217172596454	14	0.4802251381550219	-1.0018584417120926	1.0721239218958873
Si	-4.510448352900953	-3.4332755358124833	4.7496104334987	14	0.33366724980647305	0.7641867514702642	0.7804320233250879
Si	4.274020568629712	4.941142227112326	-3.5071770574040473	14	-0.9430302664344443	0.5705583524731045	-1.1538673304498874
Si	-4.708578219006771	2.6192604152561683	-3.0976078990442133	14	-2.365672719515587	1.7755747379409534	-1.0766405826117915
Si	-3.239956787369714	2.7502756342023016	-1.6285733243391372	14	2.318606065524957	-0.7307215017337488	2.424752348893546
Si	1.1517629104600635	0.7928415383203861	-5.3597705467781385	14	-0.5587659779222454	1.3902007603725786	-0.09556952741309618
Si	-2.3464016308231046	3.4677052354136384	2.345044478056658	14	0.7121336958217384	-0.03131709124153167	-3.2658532017949757
Si	4.856461225364355	-4.0673413064550665	-1.5884329213623123	14	0.9609002197410696	1.9166973096427093	0.9856180549573772
Si	-3.620361599046334	-3.090755499233267	1.62570464545556	14	-1.1450759500287049	0.13745411863096846	2.8149777450905082
Si	1.4392904950070615	-2.5773486058452337	0.9329758909533388	14	0.6535173796224704	0.5371645794644891	-0.34270417078572957
Si	3.560335909422024	2.4890892520403947	0.8191472015168302	14	-0.2632274486819722	0.20231564965287607	1.3172250780708157
Si	4.873751040640983	-1.89595129952309	4.643692545335023	14	-1.728930516554423	-0.515195770056484	0.23421483913888924
Si	-2.2200920225737257	1.0657858389261314	1.678628050348752	14	-1.5137351719107972	0.5285588328474216	0.15727425532292597
Si	-3.095270086791046	1.351449837268467	5.357805896005762	14	3.2258912831355104	-1.101234490551668	-1.5172771265998333
Si	-4.877432678464855	-4.970865205417081	3.0754858647112746	14	0.3576749457333558	1.2997855277947832	-2.385284596676613
Si	-5.444662562458701	-1.694626238238002	0.9949395769585402	14	0.2890002084111365	0.009860703123831912	0.31738649669823144
Si	1.4279479408305318	3.1169056784793816	-4.635627370711507	14	0.15025436646732565	-0.6334545305882909	0.3325776153717943
Si	1.1465941797112562	-1.7855998975757341	3.3499361384359245	14	-0.4321858350217791	-1.5523038085972745	-1.426236601208178
Si	0.08900678736606504	-4.3480620257765725	-0.08882909142283144	14	-0.8399543970391758	0.2035017005370604	1.1491480666347555
Si	3.4252914349630683	4.137370167083784	5.534625576119292	14	-1.127819976672531	-0.07523748365189718	0.37261255342235206
Si	2.448747830527787	-3.2287208507591245	4.574386685075337	14	2.3657763350599894	0.5181170599212361	1.2444363151258275
Si	-0.021743319853921382	0.8125280276313785	1.3804709165974494	14	-155.51724833627554	104.20924681609053	24.96032001570873
Si	-2.4214948258339786	3.490722413060616	4.608490978980447	14	1.3505260341773737	-0.167657664158344	1.3235417696213554
Si	-3.1896632824363795	0.4263492083993122	-0.4631278262500865	14	0.9361340477447432	1.2949132832131027	0.05067340053373446
Si	3.9562557981422275	1.0919571195655051	-0.9163668732592232	14	-0.1467910876010862	-0.1727484526922372	-1.1041269840368346
Si	-2.243785555404636	-3.5877133012760956	0.04596105571737065	14	1.2167619659018816	-0.01988852809347345	-3.1135314095397195
Si	-5.300363461156211	-0.34660037967571766	-0.87784905636405	14	-0.14792185972088734	-0.6542673710443575	-0.819674546715976
Si	-3.6216354568393894	4.0986535528521175	0.2053387684028769	14	0.5157441868212714	0.7924100316800617	0.5561910159441171
Si	0.10927300969185712	-5.434375077945121	3.712373669052337	14	0.6818974972567968	-1.1647276793221928	-2.1429908304007546
Si	-4.520772487202825	4.1724606734738385	4.170079547834508	14	9.013303320006651	-17.750191220812695	-5.686877447974307
Si	-4.541782811290908	4.695032235134145	-4.596715290942285	14	-0.028817976870347727	0.5346667506459654	1.2440244240535396
Si	0.33923710402797536	-0.6962004889931476	-0.4115726801197931	14	1.2602892363087963	-0.5029974179755734	-0.7595924433736916
Si	-3.4349414352802983	-0.08310728205070952	3.3854420090932886	14	1.2149066563028628	0.5453062415712701	0.7274893652357907
Si	2.82576198148758	-4.506741171285242	-2.57865244982871	14	-1.2212883968180022	0.011514180955219142	-1.194317244899117
Si	4.477495750827927	3.2869529219564204	-1.914683783738847	14	0.15369193428036368	-0.2205057055718597	1.1440261677264887
H	38.65065127633821	39.25617241489961	39.64976892916203	1	0.2809631902908857	0.1062046474593567	0.1594398973340867
H	7.84032372994545	9.209229972437326	6.995680492373534	1	48.59333982003912	145.43111352618888	48.40335493439113
H	13.254504774541717	12.668444673563336	14.40946288018105	1	2.7086481419125925	8.65297447936184	-1.2661153609642521
H	50.49387710012435	49.49981600748517	48.87903078740001	1	-10.263957853349257	16.9943307368112	6.135406256853076
H	3.7594764212049836	3.9910542168255922	2.438435912822012	1	-0.47531509832513513	-0.5999247461082398	0.020888688063011054
H	36.32927700851992	37.37812953465553	35.30098723481536	1	0.05052067687771766	-0.5929809619701158	0.37326792816845783
H	32.42004955235411	31.276471761279236	30.364927111679517	1	7.990596813695608	-5.997929769605822	5.622219548493756
H	44.86400427723256	44.93532365464901	45.7303564060694	1	157.59410930939995	-103.40856965236406	-24.651447220057108
