227
config_type=divacancy dft_energy=-22895.754548533172 dft_virial="98.9120714991594 -40.161078740156604 19.66348354891698 -40.161078740156604 137.08165880621075 13.992322574082188 19.66348354891698 13.992322574082188 54.33299473004988" pbc="T T T" Lattice="16.3199774331 0.0 0.0 0.0 16.3199774331 0.0 0.0 0.0 16.3199774331" Properties=species:S:1:pos:R:3:Z:I:1:dft_force:R:3
Si	1.1421046607232042	1.2959367680076048	1.0665431652079511	14	-0.8418228192753275	1.4185232852477336	-1.6708680164411152
Si	2.735424057516757	2.8431359085752175	-0.1270999842489828	14	-0.6489870920483695	-0.8064058434902877	0.451370651589128
Si	4.085086191234127	4.089247785479567	1.3589155609219377	14	42.84588378828521	25.78814290940532	-55.35233527636707
Si	2.4376334292949813	0.0310242771003231	2.3262332633366407	14	0.18067619883638178	-0.32902280515615756	2.9852993314710576
Si	3.896394612152625	1.211595124633344	3.8777245579691586	14	1.513657781640661	-0.577269451579755	-1.0119243190404723
Si	-0.1137012827764077	2.5930159344355266	2.6327387595076917	14	-0.4226406065207293	0.04266337901934514	-0.6055266703797785
Si	1.2690740851527222	3.962800600327909	3.8943219750186215	14	0.19075441747029823	1.248855273839566	-1.316450661148387
Si	-0.0977893047791352	-0.038515146742116	5.5813017223007355	14	0.6611864725714081	-0.41076827059441356	-1.6598634285603493
Si	1.3685280276300336	1.361722597040431	6.633760746983921	14	-0.733711697221081	0.6512254963400904	0.31666273055060973
Si	2.642612345854718	2.6383528317446783	5.136141697858067	14	-18.934039696179767	-32.23415205867995	137.72435619830583
Si	4.034282101484887	3.9638124389287612	6.758200574911308	14	0.31124952540956996	-0.7301365752734151	0.07612708609266843
Si	2.6768679784867944	0.12396654858182761	8.022786666269928	14	0.7293480172717257	-0.41339491178947685	1.8025739149078286
Si	4.265046582388921	1.4461458403018572	9.442118783649203	14	-0.8507478971731576	-1.489838033512681	0.5746438388268198
Si	0.0875566789285815	2.705721698588515	8.14903801169239	14	-0.3812789781249752	-0.28465555464115033	-1.3187556570678998
Si	1.4303154621917502	4.0563303909970045	9.407536751468465	14	-0.17870056150838	-0.3029926777844464	1.3276907622764784
Si	-0.0328521145728303	0.1783120734340506	11.039012255500603	14	0.38531535636707565	1.0123927744298034	-1.5200120113288749
Si	1.3693277065242555	1.6841074312538882	12.28814332823008	14	-0.8094870561059533	-0.5563434824896017	-0.317204719552097
Si	2.8714673893990788	2.8001001280841327	10.87695487958992	14	0.040547102230331256	-0.08770503045982725	-0.742374008155192
Si	4.147053145547607	4.171402551877794	12.284960932630623	14	-1.231370986330963	-0.2401039558746884	0.8687597754934551
Si	2.2628791109413466	0.1156596800683797	13.735937486252677	14	2.0431643239090893	-0.10816382971330954	-0.49903534467722516
Si	3.9389407933207163	1.3994380648883251	14.822815343342272	14	0.17048510867891084	-1.094342128519947	1.364164976569163
Si	0.0202857319493433	3.0138918324577424	13.675259810156412	14	0.3769479512131858	-1.0183919344733048	0.7692793397778815
Si	1.382138888809239	4.336038484222906	15.058361577634205	14	-0.007915919059671907	0.762655915362648	-0.750153915743428
Si	-0.0741253375011402	5.730841675520231	0.0146226997800576	14	0.011451703095939545	-2.2716579394895846	0.4575400188048233
Si	1.500311845402316	6.77536919117093	1.2232312685431443	14	0.43968472079852305	1.365066920315471	0.9576832527645003
Si	2.5923957752930686	8.271339922576042	-0.2832332083514505	14	2.5622764015892225	-1.579227652178269	2.1673327700192564
Si	4.173475189011797	9.271493419586141	1.3851091247020633	14	-2.02279011402064	0.7614894048788968	-0.6681228005041036
Si	2.88515985046545	5.448440786017868	2.6628980778040607	14	-1.5481617579265161	0.3888899640936776	1.5379295300839229
Si	4.2896244684031695	6.787886613862117	3.943347187227654	14	-0.5529421672615779	1.2930386903241826	0.28794965477732404
Si	0.2563705254965679	8.161653354248177	2.800410207655361	14	-1.2285774804006222	0.12155671732596089	-0.6733449725198563
Si	1.4598056614133619	9.745621403972564	4.153874896114644	14	-2.1118801989164306	-2.177673755616892	1.5667346514276697
Si	0.1105025671995201	5.237651957491949	5.380533359918739	14	-0.5019849167004992	0.5878436364299279	1.2784715789118197
Si	1.5939395559360108	6.756242177619337	6.741097238561419	14	-1.8392769575740064	0.6171604077323843	-0.4242328920454971
Si	2.8410959113960796	8.182608205272276	5.315873609328797	14	0.7357690956982635	0.1264688140401038	0.5677974995803294
Si	4.197465555838454	9.619582218256731	6.824476003267128	14	0.14628252296876093	-0.6446951459374464	-0.4048768398638263
Si	2.735962616772049	5.445650069876808	8.193444670287855	14	1.4911724371738377	0.08447597928825328	-0.22039900470107357
Si	4.141830752769016	6.707347525229769	9.714156487481546	14	0.28233024698960835	0.1360901472586299	-1.4948624875293144
Si	0.07151414111184419	8.196088506632018	8.140470023540013	14	0.700200681809867	0.20022276992227553	-0.5458502874570135
Si	1.4392914497799554	9.63968843045431	9.677550778099102	14	-1.0157323831301435	0.49592302168718594	-2.2021334518590567
Si	-0.0391189859071407	5.3499334022316765	10.710164710223639	14	-0.5510410919878604	0.4199440312609581	0.62621635489101
Si	1.3540195676920077	6.781929822099036	11.939515970304196	14	0.520199141009492	-0.20036700893073583	-0.0872928822770075
Si	2.7717196873279715	8.220780632488298	10.764379675256398	14	0.7253118961401572	-0.16486030157002288	1.26722145047298
Si	4.1346662826758855	9.64830537853899	12.146763363727132	14	-0.3554164868201377	-1.3789164362329807	0.3392951422417452
Si	2.6992100275927084	5.684966218955786	13.462496264361087	14	0.9631190836323574	-0.6888991312646241	1.030791346990251
Si	4.328498654648813	7.057329441282599	14.796311699990918	14	-2.7249309519050904	-1.5645954918013065	1.112503902280409
Si	0.2381411107037952	8.15277528652457	13.355518812287118	14	-1.6564484864741287	1.32285836982726	0.09418241609287628
Si	1.2308200580495359	9.559524701302925	14.911791860307535	14	-0.31443743889602155	1.4675622341294499	-0.98570007321709
Si	-0.0688050248579496	10.967498114388759	0.042415621348626906	14	2.673298271976409	1.2561250741322847	-0.45433410758113063
Si	1.3546397268344654	12.301852109273883	1.5923565181250001	14	1.7423565714257043	-2.009084322890526	-2.1946193965609235
Si	2.698018669240092	13.529946731092089	-0.038890506223077305	14	-0.47741749114542015	0.106522436076927	0.5239095030969978
Si	3.9154726657719188	14.797927377756794	1.701994126520566	14	0.9652243046684947	-0.5166656709680126	-2.166308184549177
Si	2.8587378070012606	10.765995353022275	2.900696468981761	14	0.997334839011824	1.0395130504572574	-3.1163069177328193
Si	4.11779142601006	12.233895723242455	4.0640497403228615	14	-0.16627338105397627	-0.6902106520884317	1.7653993315259355
Si	-0.07094294190168571	13.595047121072726	2.6122898277840174	14	-1.3899176816768302	0.987020335798986	1.3694992487768745
Si	1.2185147950649784	15.006627249171277	3.9898754428894216	14	0.3538977349075262	-0.26769294440200536	0.5536132257501365
Si	-0.189964537321284	10.93469495974823	5.452178060850048	14	1.5775998854000837	0.17071290861027597	0.5943950698961973
Si	1.2127048830987948	12.21881606409427	6.992865530421853	14	-0.5005430408369601	0.18576030249644257	-1.2724287100778757
Si	2.529743381927398	13.363401361387305	5.406400524150202	14	0.17269548792264214	1.648380357979504	-0.49017891529144314
Si	3.850666035385079	15.011213162829979	6.606734864354707	14	0.8190461685757316	-1.1022822159696284	0.6037096702500298
Si	2.752560033821512	10.955845650501526	8.114260139782454	14	0.3652447940169357	-0.35193829554304135	1.4637091756966762
Si	4.196714836876531	12.34738484631223	9.506207335028986	14	-1.2897211931295955	-0.4559150802424898	0.3520755925671373
Si	-0.0213465304824948	13.752436983437542	8.280169030367349	14	0.3097138042018455	0.8092895952173657	0.07325901810804325
Si	1.4114495682790864	15.139276025747513	9.753944592463444	14	-0.4021473544559571	0.24021862717196704	-1.4495606402304333
Si	-0.0175276557631494	11.087923227867606	10.858072665699824	14	1.4940919272648658	0.3656569421997555	0.9490530806468914
Si	1.4559867866940166	12.40344396879493	12.556052077771849	14	-1.0323993162574716	0.9579339355332147	-2.5629436034198014
Si	2.9100478160509273	13.799993397677596	10.896163493028679	14	-1.133063745972973	-1.9047594105307295	0.33786715034693493
Si	4.02050804053135	14.926496159974755	12.493367044451311	14	-1.2138111083259475	1.55291958832145	0.16654231867046376
Si	2.755938269150164	10.822021835550107	13.570550834945642	14	-0.2889544427364379	0.2128939482715613	0.9687845142053038
Si	4.117562946325997	11.99639109165855	15.079251148748572	14	-0.5282402728982553	0.13351030018039334	0.6892667993254054
Si	-0.0993233826578466	14.08776355975545	13.399713311175951	14	0.7723710939253596	-3.102171237793177	1.684374032687853
Si	1.0147435568352918	15.095946485662633	15.124016846847567	14	0.22519488745474575	-0.48755741630702015	2.1157134598382394
Si	5.178067719883701	-0.1216491117863274	0.2091731507600427	14	-0.6143635593651273	1.1380203228091548	-0.7786250505060878
Si	6.684972836168989	1.3474915767187676	1.2399266054572056	14	0.9488525344319197	-0.808910357182644	0.3737320126787445
Si	8.278471752714307	2.662131038864705	0.129580620818814	14	-0.4060811455957836	0.9357946618424837	-0.22308658109222435
Si	9.660137362177986	4.027101311414323	1.6456249244666383	14	-0.05315246028342124	-1.365817940179486	-0.5436147113811446
Si	8.034112730608499	-0.1227915102066444	2.6669454322074695	14	-0.2857230775700758	0.635435824347997	0.5430146153994221
Si	9.255434561791972	1.3629792353027796	4.150104981327598	14	0.3036022868558535	-1.2843761222795396	1.4090094242315898
Si	5.530987231874488	2.635970115039446	2.7436819660979057	14	-2.3103001097882183	-1.4214504886547223	-1.0346708878078223
Si	6.785291737450255	4.061275344159234	4.207371782140346	14	8.168963131512367	1.3966688900264752	2.989921150394556
Si	5.361895945690139	-0.0413874627703416	5.313833612149659	14	0.05764032461973971	-0.8448682935270428	-0.6865496552230728
Si	6.805120510031471	1.2817873475731072	6.566408200117517	14	0.890048013323217	-0.23078112798383152	0.4798294450462511
Si	8.19189427243171	2.9668250175406823	5.612342319378491	14	-0.15907042949958142	-2.2400847661581667	-0.9310229474788209
Si	9.42762664368861	4.228440873006478	7.007847269705439	14	-0.08630609205513468	0.693341487036776	1.108078772913902
Si	8.083823381869722	-0.1251415869570108	8.109151986845895	14	0.8588949586011108	-0.2011388547478443	-1.3566740612189117
Si	9.369739683733405	1.2201467928082883	9.456904683203591	14	0.8934012488817541	0.12757027555925524	0.6712590347736203
Si	5.658576815446464	2.6215432549885853	7.987029595714007	14	-1.6942972136709646	0.5940286873880762	0.46583106213070485
Si	6.7465644310015085	3.9366559964800825	9.538227130752729	14	-0.5852308792035935	1.7894391662693199	-0.9212656027888589
Si	5.397163416923068	-0.238924469620584	11.010990854247972	14	0.26379746273144905	1.0198448660897204	-1.3344304006521825
Si	6.663479425889596	1.2901431760188542	12.23582148057956	14	0.753746264096739	-0.2443640202796418	0.3870467386896634
Si	7.9846958389410725	2.5876303418826034	10.762829277400252	14	1.4603927069442173	-0.5667086364772468	1.5682806570566747
Si	9.304149694429775	4.063527501045002	12.17333228698822	14	1.2596767990215372	-0.40027379000916513	-0.42029601557928636
Si	8.081799704668018	0.0384825067872498	13.817635293282777	14	-0.44103455109160067	0.3346239580961002	-1.2990769311685506
Si	9.559916380761317	1.325688086868146	15.067060125606048	14	0.586038720495184	0.900536066145165	-0.6175913249840413
Si	5.401161811394178	2.6995201071639374	13.594573841727167	14	-0.17653080572870702	-0.3735456075430338	-0.5154261410931692
Si	6.851828285445004	3.9480636607058193	14.839624920098364	14	0.24647849729493157	0.3883867987825246	1.606882461001782
Si	5.441798555202597	5.437147361634163	-0.1465207573943718	14	0.003749185777839929	-0.4311116272190213	-0.45953648208591835
Si	6.91829955353002	6.711068480084515	1.068779002116286	14	0.9750592967391252	-0.43435584791198406	0.8497950455415108
Si	7.896486360915167	8.458823823327494	-0.14426860050860402	14	0.05284289920287542	-2.224886191279175	-1.867588169585753
Si	9.482494407818692	9.28897211541699	1.0827978627313188	14	1.3287222897309217	1.5301573358116471	2.6799247817180265
Si	8.217712476730876	5.407102283179825	2.7674764931953657	14	-0.9371074682189513	0.44611222698836117	-0.5241889822452979
Si	9.60631407660362	6.716225592953376	4.089900584576892	14	0.45434182089709113	-0.30237175584963066	0.509170641849249
Si	5.672106076738503	7.98467951896364	2.458686200183681	14	-0.01428094739023049	0.7311771015964791	2.528771813941309
Si	6.748637068135512	9.633029879661606	4.337099282756057	14	3.402096586930687	-5.2244723836827	-4.1850426370378155
Si	5.485748254429935	5.417840828330806	5.53836386167425	14	30.169783057864002	28.3398332990599	40.37343615015025
Si	6.644009692811908	7.071511501671963	6.937181767420116	14	2.5728971234456903	-2.4280310223977986	-3.307450600548588
Si	8.336848311992505	8.136700108752967	5.42639249650575	14	-1.9056341005606443	0.07111831581848795	0.021436847717266626
Si	9.72060287856762	9.486607042131833	6.617685569212318	14	0.05803473217585043	-0.2475519337660934	1.7857491159138434
Si	7.868122240136439	5.61896823021633	8.30391459753251	14	1.7551910149628198	-0.6246004151972969	0.5679967602426409
Si	9.58987985932849	6.765136565320375	9.763997698562234	14	-1.8364240591107703	0.4608436320306816	-0.5913292839124528
Si	5.5669727821144726	8.18668819963055	8.349626854322622	14	-28.739887002453663	-1.9492886406809062	-0.8621736321053635
Si	6.8897885529543945	9.685106927650628	9.51554236212072	14	0.8092772539118291	1.794038873687065	1.432783406684871
Si	5.514961014035183	5.357962831128762	10.983916011686459	14	0.9071921435979643	0.8273786066972676	-0.3141085945255746
Si	6.8418078193010805	6.94836095196179	12.245417627310223	14	-0.687283191570911	0.09789149262772193	-0.1964147058326042
Si	8.223489748742193	8.443254564856316	11.00782477862595	14	0.956690806110923	-0.4238294856207658	-0.1077809921311395
Si	8.070555240216612	5.456486534892386	13.517625148130099	14	-0.5821360397297313	-0.3729619666353602	-0.24556549779574702
Si	9.37582703531595	6.6257802780191355	14.897071240662877	14	1.9060025399530216	1.7860242241830995	1.5735645356001111
Si	5.567331821618001	8.443466724562947	13.654876158342471	14	1.4113139059300386	1.0745556733076835	-1.7682817977003538
Si	7.2360168741976105	9.993130181722957	14.533054144017582	14	-0.6492511445647486	0.3450698447907978	0.09752073924055656
Si	5.523953321600822	10.65010719326983	0.1045131354815724	14	0.6938719060643225	0.6834350182382455	-0.98792433642955
Si	6.814161777529408	12.10389078301038	1.4230204322791544	14	-0.9008710811683802	-1.9688843198784152	2.1108939229156216
Si	7.969306100221659	13.373846146944489	0.1301355000515394	14	1.6126548495560464	2.314968722828543	-2.438552756699441
Si	9.439882946740868	14.84654459053	1.4104214097008012	14	0.5800768414788247	-0.5721280122710549	-0.21803410202760137
Si	8.27602375609934	10.573191139627632	2.8756616235993855	14	-0.2689263036240804	1.1334280715968381	-1.6442179955767162
Si	9.546387119469278	12.15732238912635	4.066024457592267	14	-0.5154767918679761	-1.555471667462229	1.56941580005552
Si	5.504499908500566	13.477233203983177	2.8704555507982263	14	0.46980341985033364	0.5216718701368729	-1.0262983404432922
Si	6.953713904559847	14.690346086517799	4.197710355499951	14	-0.5089222730753227	1.5443655209213176	0.19131517554062252
Si	5.63597364670162	10.928558648233382	5.39185942425731	14	-3.5205774909621543	3.3543596457830938	3.622765300579844
Si	6.945684475662761	12.12737523053661	7.02243732953063	14	-2.353733020629884	2.6210400421233344	-2.2409908236729867
Si	8.376424257267772	13.452704277901228	5.637687244332096	14	-0.2771201591688603	0.23554615747366195	-0.06384285909406494
Si	9.894606477959334	14.790387548182704	6.919996831183062	14	-2.8824111527641607	-0.12606180806792433	0.608885819480552
Si	8.37094074485025	10.883907189976423	7.9832923208818265	14	1.0333863635898763	-2.544567913696703	2.0595168108557624
Si	9.667105992541918	12.044078065718068	9.525774987971273	14	0.09848413240401604	0.8401626565701079	1.1713899274277606
Si	5.367346818152794	13.664276465343937	8.102558715962921	14	0.3671227293427719	0.046403565928564545	-1.3545770677197988
Si	6.832113752705818	14.813920955641233	9.440193026312096	14	-0.5585199231431072	0.33826438611889786	1.4439034371945114
Si	5.487070172602016	11.050175120064845	10.979574897689254	14	0.7590504543722044	0.5131064898733316	-0.5158231197546002
Si	6.6503092041010845	12.583094280378495	12.42776073517025	14	0.5215551419553383	-0.8333553981244838	-0.6783457723675443
Si	8.260682977312227	13.591978965315302	10.923760574868052	14	-0.7154653340955861	-0.9893250746079667	-0.8094981118588299
Si	9.340837003699383	15.072559958001001	12.2586204890536	14	0.8627089362330186	1.2415849593257833	-0.622362010905576
Si	9.409593068625034	9.813855229620353	12.727787200300359	14	-0.4415695981087236	-1.0675460688733638	0.06019728886062698
Si	9.288710995778061	12.106909978835503	14.724422199398111	14	-0.6923215295562732	0.5890759672098749	0.05238010024524875
Si	5.198696171359138	13.653684799989856	13.925640903935033	14	1.2885377133507314	-0.1870921350522793	-0.04048616703424374
Si	6.6342829862617805	15.075383314096927	15.125746764455474	14	0.6185966271642191	-1.4047557875899368	0.7175908668637526
Si	10.84420068488169	-0.0509509695461382	0.085190282200782	14	-0.299912750721441	0.8772215402125944	1.6808109949351917
Si	12.170819010463523	1.4669538115290597	1.5350897173122524	14	0.20943581161596217	-0.48463406955801186	-1.89344423312729
Si	13.589253529083976	2.7064234576181385	-0.2214294538123008	14	-0.07302659018710186	0.26688176067349867	1.9336300950601406
Si	14.859829052160542	4.198510034394172	1.3221140118102972	14	0.36959638977128634	-0.825910762669995	-0.8568933531093755
Si	13.545515989563267	-0.11704687815019321	2.572044763433993	14	-0.8796777171249317	0.25749748336549017	0.33522945339899507
Si	14.950617086620879	1.041508319825576	3.9534655732361754	14	0.32626195226338256	1.022403887214864	0.6620321091112047
Si	10.866069454642044	2.5341171358794687	3.126564956655865	14	0.4526664886704826	1.3160102308070456	-1.3093618666702067
Si	12.428739933816233	3.92005857943062	4.190284765767889	14	-1.184959449975906	1.5287275441431127	0.40276544817492066
Si	10.881801912887552	0.013333421562842701	5.712236901246497	14	0.08001716844205246	1.2449001425255823	-2.8299816872967645
Si	12.159084946689124	1.5718912664238927	6.893852227335236	14	-0.9389319245541283	-1.1152300452513622	0.690371346170941
Si	13.66287294728469	2.3830757447361286	5.4535815789092945	14	0.1820034034026422	0.4335060976036752	-1.5457559746784535
Si	14.929596955687046	3.7969080297204476	6.643732253195545	14	1.3799093971076217	2.1805639351072705	1.6265681288854956
Si	13.392826280699184	0.0043737539520708	8.157524399957602	14	0.17764769387977936	0.5106469705240779	0.5488829061821281
Si	14.945933253097579	1.3435258222025244	9.325773664528631	14	0.3448201904642115	-0.5920790182238079	1.538351448466959
Si	10.7152239032279	2.760083543418171	8.338757749352178	14	0.9583062315835722	0.8847628492271207	0.15478208293610643
Si	12.413921394306978	4.0322257843283165	9.731227183876568	14	-1.4023294354993132	0.7656093440439021	-1.1496527746091005
Si	10.964870598022031	-0.0155202985388781	10.799418666805265	14	-1.0117829082478642	0.05198697824179812	1.1431404219436976
Si	12.205368402689395	1.4559378267617171	12.395610379627042	14	-0.22955831029356905	-0.8686013954057338	-0.983772001337511
Si	13.63865410077397	2.5339049761728387	10.9088441154942	14	0.9380605769611301	0.8463921876502947	0.9444528590080824
Si	14.899731396984473	4.181161898382787	12.37570000715866	14	0.17894687339805015	-0.8608546550761277	-2.4569662416707456
Si	13.694876423031	0.1764679159841103	13.721249506562888	14	-0.6707445565990586	-0.30327858469604685	-0.13889290916812333
Si	15.216028879615383	1.3338154356298297	15.110128546051998	14	0.5662332391035514	-0.21564683073784385	-0.040301047451193076
Si	10.863898897643441	2.924637875876119	13.61649157141982	14	-0.7509321893238368	-0.4896436111637883	0.14280021792315234
Si	12.404635327147545	4.312162357238281	14.809726721440926	14	-1.2167354835170843	-1.2666100416278487	0.9922018843506805
Si	10.892507818083665	5.243380269570967	0.0871323595153209	14	0.010037080948794071	1.7939668827381008	-0.6552677881244271
Si	12.208942477747245	6.967031006145256	1.257894900611049	14	0.02718738187630982	-0.9229262797151425	-0.5377330508507739
Si	13.700180415696757	8.248769393786064	-0.1162308792785382	14	-0.4407884963124626	0.6953641755921365	-0.05710219227623271
Si	15.028300179202434	9.68306693047149	1.2336597341228952	14	-0.9921381209387408	-2.9535474663198893	2.4488148093637476
Si	13.462626824180553	5.527413156816639	2.5931628142324246	14	0.33098430140489854	-0.7990519680536002	1.2435204874107908
Si	15.00785124747876	6.587934250351776	4.077954361095863	14	0.6975249325031889	1.0243481570579598	-0.9931555073139232
Si	10.891610219324845	8.172701978970384	2.728569666994855	14	-1.1216773489521654	-0.41830520872989574	-1.005930301207611
Si	12.189064745233727	9.445089019542028	4.061210064249502	14	1.0801789377533793	0.9351359446594619	0.19568091237423396
Si	10.92180217757608	5.406482124037368	5.734481030487812	14	1.1649338819688686	0.29889536434625846	-1.4949085103145452
Si	12.335960862109062	6.831363033743895	7.085677242083893	14	0.36083123462436956	-0.2991092803088948	-1.6731349600018897
Si	13.69593722156415	8.100110719347956	5.28161797669672	14	-1.1098340665159672	-0.7315704807104617	1.3720063335745507
Si	14.880098464132454	9.487896320349048	6.716372472750273	14	0.5986823880175441	-0.6545759036827754	0.9314314961141923
Si	13.819838490236245	5.4286609733689515	8.295395569312431	14	-1.71383761410409	-2.0752568605151773	-1.7535683903952741
Si	14.930543514378165	6.912097962105442	9.457198442797386	14	1.442747468242573	0.8629963858078111	1.467563005461046
Si	10.799875626173389	8.078927388639793	8.322225612212447	14	-0.10900483826352998	1.1796017807097814	-0.7053354362447348
Si	12.049871657706818	9.613054227283492	9.539418489105346	14	0.8727663289138416	-0.3641605589034293	0.5931725093164668
Si	10.972704187189917	5.470831795056081	11.032892263963191	14	-0.7960987964828782	-2.141089498016505	-0.5736480497363263
Si	12.203720084968653	6.874529374054445	12.218505984523041	14	2.254993320357045	1.1882013566740806	0.03876764023825677
Si	13.656785595702143	8.428892984715189	10.85304611265043	14	-1.0756283384472491	-1.5801486221039462	-0.37791854347154163
Si	15.001992375580278	9.726673910172734	12.18149227570477	14	1.1362619438807053	-1.230466985700399	0.29091182521666664
Si	13.746692351381093	5.669250080687711	13.596728078748336	14	-0.8548606372432666	0.7995314791958079	-0.5099265468133724
Si	15.175179976100335	6.986386499380913	14.811146559477606	14	-0.9281435666307871	0.7686555896272136	0.07198863496935809
Si	11.033675622879981	8.186786119495151	13.62403140099391	14	-2.143538732944478	0.4933552588039541	1.2218332140353416
Si	12.248910102480906	9.761566021924702	14.923982883450059	14	0.4833716568458191	-1.264846263378227	0.39623329799855245
Si	10.677932754793266	10.986657767895219	-0.102163058731206	14	0.3158960269441416	-0.7811277644247199	-0.0501357824112915
Si	12.003457641887081	12.143287208533883	1.425713228555616	14	0.30545065447050795	0.26475134280522394	0.5842091219493666
Si	13.343197229325126	13.57249291226018	0.0483887330891415	14	-13.338066247904614	-8.914356645755541	4.042832230675105
Si	14.690884645773092	14.740709536876347	1.2909591748905094	14	2.239210590349316	0.9757370401015161	1.1868088460326887
Si	13.561509567447706	10.832809340633386	2.6698830281454273	14	0.1943184836650875	0.635401114426175	0.6319679174921813
Si	14.922399845639047	12.372142252078245	4.163552642732472	14	-0.9912618882456343	-0.1310181277935738	-1.2620216470735122
Si	10.83398437900857	13.53962447770992	2.968457015283992	14	-0.19777019255738626	0.44584688891932184	-2.7920388576452115
Si	12.150092639123486	14.942669257610959	4.061226384226935	14	0.6180762354474212	1.6785736190855989	1.3511251017169679
Si	11.095087697960736	10.943540387516968	5.523953321600822	14	-0.46564311433180205	-0.15756530444516673	-1.58559293761936
Si	12.570152538274046	12.24603778645268	6.662696066972807	14	-0.8650620118220179	-1.926254879449296	2.417804965207974
Si	13.555275336068263	13.77479535252089	5.52410020139772	14	1.3678545127035755	0.7517634276738407	-2.0784218911642793
Si	14.829767653728773	15.08360858272321	6.901441016841628	14	0.7040092601206024	-0.7224646541086253	0.44432273768553815
Si	13.672648613767118	10.77175630505616	8.285538302942838	14	-0.61475950958443	0.5179180563694568	-1.113442098611731
Si	14.934182869345745	12.325483436597011	9.456757803406692	14	0.27651852052394565	-0.3637350409729448	0.5485183234477311
Si	11.139086357120373	13.341940591062778	8.131689875681005	14	-0.5393127379594729	-0.49944826419164107	0.7313984737645437
Si	12.261329605307495	14.76394918474108	9.518088278600283	14	0.32663424831374	0.6739561242544555	0.9738513914597197
Si	10.881687673045521	10.772115344559687	11.208952180511474	14	-0.5981825651433075	0.48877509178664225	-1.096180468823853
Si	12.123229956268602	12.202430806751437	12.547157690070808	14	0.5365058622814673	1.6956737834593718	-0.9773689206482141
Si	13.638572500886804	13.47408344833859	10.98861616518719	14	-1.2943098447944639	0.2509365368095363	0.13199360515203798
Si	14.78911458994292	15.16321743264187	12.09515959508367	14	-0.9082013024361225	0.24627486575357585	0.27002030893780343
Si	13.7553745793755	11.010060615534286	13.594851281343528	14	-0.9108955637011058	-0.7842475436201876	0.5402797306703806
Si	14.855585858027938	12.22539301499981	15.112951902147923	14	0.6952016817359031	1.8699589858014614	-1.2385361426371517
Si	10.66900572713736	13.789042692819985	13.567498999165654	14	0.8693490728328328	-0.691519858917451	1.2791110128049406
Si	12.189032105278862	15.140548983987296	15.038793924691918	14	0.09811466456951078	-0.9462251219052604	-1.5753018314649352
H	163.93126019951768	162.14671799514278	163.948996750992	1	-0.24525002317296482	0.5449761116481631	-1.1450026735270808
H	68.01343414454354	68.06726722210436	69.80827099068327	1	19.741594309527095	32.97835386560723	-135.55878566387298
H	102.94616305634683	102.92598666824631	102.86194218080558	1	-31.354725538544795	-26.26024926829091	-40.091105131829046
H	139.87815937960784	139.9037132002726	139.95261764464865	1	0.06333558001439972	-0.15970086452408172	0.27181391200913874
H	101.95862653389027	101.92240271197976	101.85196079338527	1	0.08434511002745773	0.06079044285798515	-0.2866975264864119
H	135.87935201306928	134.06018697657004	135.91627759400941	1	0.17081523860201783	-1.2014790587683895	0.43694803629575735
H	192.13563287914158	192.1191774458958	193.98682097536008	1	0.045726851008301574	-0.03461659069887769	-0.13845016483199385
H	-0.9155637899788565	-0.7901104914528734	-1.0167900820054026	1	0.6976254627212067	0.8215869348531022	0.4981418855784737
H	70.91239743192192	69.23004439824209	68.9649802207669	1	-6.764088815967172	0.39539100389567194	-2.925550700488797
H	117.87230996880454	118.03671578946783	116.18738980267447	1	-41.64120216073004	-27.107694066459278	54.134319896621626
H	137.1509426387422	138.88249877238508	138.9981453964715	1	25.207772447698936	2.9020752233631844	1.9573135746061525
H	210.09250404878154	209.98514960522886	211.8022305806099	1	12.200025613363431	7.531229767450286	-5.585385636566782
H	20.714971835799982	17.999975494036235	17.999975494036235	1	0.12124844179807513	-0.09487250076080404	0.05765112326208433
