229
config_type=divacancy dft_energy=-22802.495097049494 dft_virial="50.72915351944057 -44.359573705340416 -8.632456853319956 -44.359573705340416 -82.2378205822982 -14.582985363860896 -8.632456853319956 -14.582985363860896 42.966726991605476" pbc="T T T" Lattice="16.3199774331 0.0 0.0 0.0 16.3199774331 0.0 0.0 0.0 16.3199774331" Properties=species:S:1:pos:R:3:Z:I:1:dft_force:R:3
Si	0.8900099693141085	0.9642005867249811	1.2757979158551593	14	13.091724790523248	0.38381228819691715	0.11506544772418302
Si	2.545687999879537	2.808358036665281	0.0004406393906937	14	10.21426018728452	12.611482940183643	-1.445928696855192
Si	4.109990476797038	3.923175695120342	1.20836376910159	14	-0.7027769293406555	1.0037302063851605	0.9593501003435524
Si	2.5780015551970745	-0.001795197517641	2.680180933905714	14	0.22939093133722743	-0.11915299096215444	0.6316431868902466
Si	4.278135204290267	1.2614200157365982	3.994069677089729	14	0.23420249783335256	-0.8310663430579561	-0.2635969165164775
Si	-0.0604165564573362	2.5520691110558786	2.6542484897645178	14	1.0745122216277727	0.7970606469831455	1.3808391087913874
Si	1.3122730654181378	4.109549837406345	3.9211030579863384	14	-0.28629463428274476	-0.4482997233947432	-0.3798083058818505
Si	0.0003100795712289	-0.0014198380366797	5.246481065283255	14	0.9274377982204064	-0.06391047916398482	0.814222003663538
Si	1.2451000383034982	1.5110177505984297	6.671427254899516	14	0.538688473587741	-0.7414406969239783	-0.7818343041666966
Si	2.9515658386407333	2.6514251336685914	5.35574331419786	14	13.685672230983206	-15.875013919653462	82.47179600632401
Si	4.089264105457001	3.984130810832971	6.753696261139773	14	0.6578136966124378	0.5104536234040029	-0.09768477575998201
Si	2.6544769694485812	0.2237632105852341	8.133697232905277	14	-0.4176709170474151	-0.4888383409775179	0.08744791992781244
Si	4.052136156796698	1.4997569661695909	9.476717135807375	14	0.2917217233925133	0.05192552882464658	-0.4238467120264108
Si	-0.1828816671153186	2.8043596421941714	7.988269913998923	14	-0.3001850307748447	0.23113979717599217	-0.002666236216993558
Si	1.3255575270486815	3.8745095224148383	9.428834322018659	14	0.11515080842081193	1.060481957006257	1.546680801262111
Si	-0.35819086470167877	0.19410981158929141	10.817044242433012	14	1.632282924680589	-1.0262497465527414	-0.5232484719191877
Si	1.3190295360754414	1.1752831748446964	12.251096979456943	14	-0.4493479630337675	1.6848692275725137	-0.6425840113590727
Si	2.947844883785987	2.735848376930018	11.016507006620358	14	-3.242044766530405	-0.6882578975977792	-0.8781407103645471
Si	4.1604681669976165	4.098060573293442	12.28721308951639	14	1.505290119376239	0.42933987854290717	0.4599779408693878
Si	2.700662505584254	0.010656945263814301	13.654011199538518	14	-1.3857635468110672	-1.1761156190061925	-0.03477008568649054
Si	3.9366723164575155	1.293684611121837	14.957830516646307	14	-0.11863671301386873	1.2012684852426692	1.1918142738699526
Si	-0.0973160254335753	2.524667868945704	13.691416587815182	14	0.9501121189282603	-1.221678947716133	0.9995426471502351
Si	1.2163768780212423	4.02218899820696	14.922204005909853	14	0.40852163876566816	0.6950525576273345	-0.3573296462888599
Si	0.0951291484575399	5.503439109967415	0.0057446320564512	14	-0.6474434004141525	0.44898929384160685	1.0212643733369742
Si	1.4579778239408547	6.912065322150576	1.5585904848159162	14	-0.5982054479806568	0.360093070286955	-2.553512017773902
Si	2.7389165326874405	8.377958335146484	-0.1647338522097114	14	-0.9934941218845869	-1.9870044417326906	0.18284466906339467
Si	4.0543719937050335	9.412791784201922	1.348536055274486	14	1.2777714669331435	1.7730049181734655	-0.46907553993419965
Si	2.800149088016432	5.3827039169173405	2.5836809073437936	14	-0.10851555692110579	-0.9618728688836817	0.4362042155266385
Si	3.96901851172992	6.6409578570319185	4.078966199696715	14	0.6714683227466802	2.0936469484280686	-0.9682440678670085
Si	-0.0370789887280032	8.291984694028912	2.7748041630628277	14	0.6164777792698851	-0.9747589916377317	-0.977624488517037
Si	1.3864473628515774	9.57923923404211	3.970601549540931	14	0.502988676217485	-0.131195534060664	0.8611305346769795
Si	-0.0233049277744668	5.345412768482708	5.336355181007337	14	-0.5653294955835193	1.5224545613830154	0.6953927148611901
Si	1.310787947471726	6.701309133579522	7.000976559206104	14	0.5682808673805173	0.08547896747364303	-2.4564911014075816
Si	2.7911078205184947	8.28217638759162	5.340679975027109	14	-1.9798282296736254	-2.3705058832964014	0.04837586081965013
Si	3.9086345952274497	9.451617010515266	6.837336145484411	14	2.084873822854659	-0.020699968932512185	1.1260173747325752
Si	2.788953583497325	5.280132858750307	8.089976013362001	14	-0.4677043694669647	0.9737914847057602	1.856750189329733
Si	4.194674839697393	6.754300100304797	9.717567362765063	14	-1.616260567657022	0.10924446527936778	-1.9551708154323413
Si	0.0706165423530237	8.024320744148639	8.40831349317205	14	1.1546551171199806	1.5825646897732897	-0.5632193894472738
Si	1.5403121100908441	9.406965552258306	9.769122171476226	14	-0.8945135090432501	1.16193648738664	-2.1500557135994574
Si	-0.2089120311211131	5.2943312391171045	10.996939353678073	14	1.6995268418921456	0.2628921765482249	-0.17382317471605907
Si	1.3768512161209145	6.736348125128387	12.38097135986955	14	-0.43060280547616386	0.47332480569680846	-0.9958119733307003
Si	2.9260740338902314	8.214823840725217	11.059983426502138	14	-0.659846926699611	-2.039108919487619	0.4102175398348379
Si	4.158917769141472	9.628917245348465	12.29556891796214	14	1.2334309559134657	-0.10131209114564692	1.3214427192379865
Si	2.781854393313927	5.298525473317412	13.644839372221114	14	-1.247223393292868	0.5799685979448466	0.18889113744478692
Si	4.075800124074693	6.743039315875959	14.901069635133988	14	0.3559823871011023	0.8690251135624941	0.4667093517080674
Si	-0.17436263889524042	8.28437958454509	13.5362136024264	14	1.6835800753649912	-2.834819993288219	1.501004343918084
Si	1.0613860523390914	9.611373269607883	14.977724569137257	14	1.3598995128430373	-1.3414973407351416	-0.3457930967173554
Si	-0.0469199351201625	10.8760572808311	0.0720853403220027	14	-1.1000816069261137	0.5732161040425415	1.4684528650123494
Si	1.3949174311393562	12.139811053340633	1.4675413307166514	14	0.2446123890535681	-0.6065743957977388	-0.17099084509538395
Si	2.766350414752482	13.320300300986489	0.0669282274531431	14	1.0168312735439748	1.5773116644936949	-1.1004076230807083
Si	3.9751711432221986	15.009662764973834	1.367450909119449	14	-0.158472904623179	-1.2955545168799474	0.017365502442812143
Si	2.9106679751933853	10.846975081045317	2.774086084055771	14	-1.1342644521574823	-0.020107329156218053	-0.7009619860951629
Si	4.2478290061970005	12.14121457139988	4.08741994800706	14	0.26420961091426876	1.2064911714794861	0.11488855567815683
Si	0.12045775343371111	13.594508561817435	2.7212419971273936	14	-0.27537309310381974	0.6876940542010707	-1.2065989007924003
Si	1.4183855586881542	14.755593356295334	4.154282895550471	14	0.33449180328264455	1.8132581430657038	-0.25941089994474437
Si	-0.172665361242198	10.694726011571927	5.21633806696432	14	1.1702519562130629	0.7564286982772493	2.3184499994320236
Si	1.4192994774244077	12.122136517780584	6.6834713982451435	14	-1.0392225155560804	1.1251527120134095	-1.7214018059559655
Si	2.9824269159667254	13.683109719301735	5.418852666931658	14	-0.05749120051117112	-1.186418038024026	1.407745725966737
Si	4.213279613971127	15.157081121127026	6.989193535499406	14	-2.084079094200202	-0.6336962144883848	-0.774391725596464
Si	2.66926286900297	10.896473572599907	8.065904046648178	14	0.286456613917914	-0.4179722505909365	2.257908953790093
Si	4.186678050755175	12.329628710865018	9.359572337792583	14	-0.32436730475296544	-2.0196168558345127	0.6666662693402396
Si	0.15455018629145698	13.720156068074871	7.917588091736166	14	0.647016082709944	-0.7272422820145243	1.656332272513658
Si	1.3366714316806225	15.11118934458515	9.544412402199873	14	-0.3466585307681173	-0.2916759577178146	-0.24721563319021803
Si	0.064137511312083	10.893030057361525	10.84256868713838	14	0.05751948266969274	-0.28068576802684164	-0.5100309336893705
Si	1.4276553058701549	12.15743662896838	12.149048160567766	14	0.6546021289570408	0.4853786616587266	0.5015231461850005
Si	2.809990034408591	13.53110544948984	10.761474719273306	14	-1.170371769720982	0.7506953905238511	0.5537924317909508
Si	3.885019587881754	14.975439772296625	12.284781412878859	14	1.5094316558259335	0.20305612798507872	-1.3313707853212065
Si	2.5386704095833035	10.792939635764322	13.719650148774445	14	2.5022837727120795	1.4167062851179852	-0.9030385229532651
Si	4.444288894536658	12.242643231146596	14.878368546524545	14	-2.79750554177691	-0.7274682821721655	0.3289091623010071
Si	0.10723857171290009	13.573455790928735	13.439827815706513	14	-0.10427323314286147	-0.35188738765770244	1.8697039321537028
Si	1.4737918820735285	14.86350104708299	15.014232358655102	14	-0.7261346498426047	-0.7123288427155374	0.09193784114838702
Si	5.273294788205838	0.0137414209986702	-0.0041289542905743005	14	0.06981887918968512	0.1048087943810483	0.28389630724011056
Si	6.809282104276911	1.3380096698301367	1.1865439592735356	14	-0.7418302193799806	-2.7397302341278627	0.7645940145529756
Si	8.094398727246372	2.604684718300193	0.07603477486081289	14	1.4866984568062482	2.1484487727743646	-2.3467879509391
Si	9.315589998610378	4.129019570484033	1.3404250264902353	14	1.2049852750934753	0.38012223784144056	0.46909662299782495
Si	8.106540790456599	0.025149085224407102	2.6060229564497073	14	-0.34294688312795146	-1.4146650846043196	0.29726374091009244
Si	9.42852424244743	1.1042912730107115	4.094062178822332	14	0.9068668987749657	2.088237857055541	-0.27755313330477327
Si	5.531150431648819	2.6243502911070786	2.3978616442905167	14	-0.9188567342144123	-0.10841374115042793	1.8179856344178602
Si	6.74625435143028	4.212708414760969	4.0159058068952165	14	15.1203294592254	2.1635535023091705	3.9349756480475535
Si	5.583619159096235	-0.122726230296912	5.569469738661738	14	-0.29028010463950626	0.7664632081207234	-1.6672743825351444
Si	6.778796386431881	1.232990615048138	6.9310291359278375	14	1.420735464265189	1.4583875019050339	-0.12703651409479247
Si	8.180405008318807	2.6158312628870006	5.397342936674832	14	-1.3051573381401687	0.21848738789554345	0.18838488680724977
Si	9.447814455773353	4.2100156184845074	6.597856796631101	14	1.6288795525683089	-0.7145171104535155	0.5751197504215791
Si	8.236154051230278	0.059567917630815	8.405718616760186	14	0.1496208461164412	0.34864419540686764	-1.0291674368700454
Si	9.705425299554838	1.5320705214871286	9.45137221085377	14	-0.3506589135357357	-1.0334429279069197	1.6447617843519275
Si	5.463634685008085	2.763755538340619	8.110800304566636	14	0.28404157469069896	-0.3797023763426604	0.500107752706259
Si	6.779220705845141	4.138942116763357	9.495631989652338	14	1.5168834903753186	-0.4327954440931862	-0.5618201939320492
Si	5.332177266784464	0.2878354419875847	10.93143096426161	14	-0.528183708581212	-2.3695676869650795	0.03383394623942462
Si	6.6907990681126055	1.4141913244878472	12.312819134108926	14	0.3935968866032726	0.6737650911291685	0.008836888985348948
Si	8.135198670829121	2.625117330046434	10.90747323738982	14	-0.0249993712488638	0.7244983984168624	-0.8226158912022253
Si	9.463138914583034	3.9569906883617256	12.28936732653756	14	-1.0064504358138768	0.12685499405919	1.1223720616096693
Si	8.133452433243779	0.1353578928301314	13.527433454567392	14	-0.547249997193302	-2.0462576207197594	-0.1600963005223205
Si	9.381522707440103	1.5405569097523406	14.710370698828212	14	0.8279964433056993	0.23589351380241394	1.5885867326541403
Si	5.329990389808429	2.6110005495668025	13.794314045530877	14	-0.10313809014401608	0.5577660750632397	-1.828208092060237
Si	6.592438564123312	3.9272230495237506	15.062833251450874	14	1.1242983337155243	0.7741927220446845	0.8307387842401691
Si	5.36721625833333	5.41217779616152	0.0612651952838574	14	1.0273779475672224	1.155842453556825	-0.2717092680226087
Si	6.952228786613435	6.824737122906058	1.383770886552549	14	-1.1491493521874154	-0.954604868364687	-0.2533844861848493
Si	8.427734266317438	7.967380342884554	0.10670001245760781	14	-0.6967039785744656	2.0812984437964612	0.32444932301267815
Si	9.57781939600543	9.620626696812451	1.3762473769558898	14	0.42469414833993163	0.2032309631468488	0.3349761995249605
Si	8.158160879077492	5.55900863312712	2.87584114335115	14	0.01568682777928746	-0.5950069929623926	-1.6224435617309143
Si	9.626567168598099	6.806067068722591	4.05598767147091	14	0.654085079677159	-0.01669367262265745	0.5314680385171691
Si	5.535981144969016	8.151779767901152	2.579878352601881	14	-1.4502041878920666	-1.1411994945375177	1.0174820203005044
Si	6.613703494718641	9.392163332726485	4.160615046794514	14	1.7406580992512146	1.0236578152795002	-0.08716792655844831
Si	5.296681315867471	5.413826113882263	5.395939418615585	14	0.6341865242729371	0.272513766877283	1.2358159132084348
Si	6.742255956959171	6.820901928209278	6.643046814143355	14	0.3621134448475274	0.025156465783924848	0.8580068988235315
Si	8.269202005532305	8.097532162913526	5.370953533165509	14	-0.9606734482518324	0.5595203402231768	0.07184748128728195
Si	9.501523501505686	9.407765231152526	6.890163912435355	14	-0.011566374393218148	0.5081743385376916	-0.37879503327518016
Si	8.186149640375259	5.563904626357051	8.043284557925901	14	-0.28185253562112483	-0.09647069982780808	1.131968197996058
Si	9.475786897093686	6.967243165851887	9.675412861055365	14	0.044377277825755845	-0.27331569462663724	-0.6761629039507386
Si	5.483887777002561	8.090498252639861	8.272074321560531	14	-0.15871124608635673	0.7739613225658711	-0.5459963262391978
Si	7.076701254495688	9.445284859271224	9.833667682224139	14	-80.85548144545525	17.879482080052195	95.1824989292543
Si	5.592693066549039	5.502166151727634	10.875877761079336	14	0.22787320786674403	-0.6092678857311259	1.4767724476072845
Si	7.05413072570571	6.913501480164689	12.103091104116158	14	0.8000158754381237	-0.3161593081289247	0.7561823863875792
Si	8.825696916023583	9.110464202253743	12.013086428572612	14	1.2824089695990946	-0.8573366116665692	-0.7939367540191655
Si	7.973124974941005	5.244147308510322	13.69614938127078	14	-0.15196800816320438	0.14798099514325075	-1.3894857359830455
Si	9.306026491834581	6.636486183215249	14.902489473170666	14	2.2609372016361635	-0.5567088365555948	-0.509692062008175
Si	5.707373547971433	8.048735430388557	13.63576546476831	14	-1.735492234441973	0.6060295785803993	-0.3737543812950298
Si	6.871591778116487	9.321709990147792	15.213629842932717	14	0.8413127119798102	-0.09461153357080901	-0.9117064903190804
Si	5.653550262397069	10.89621245296098	-0.0066911907475709995	14	-0.949707684061401	-0.34925894668891505	1.1045203631508174
Si	6.999099761801298	12.36990641516991	1.2350632521821416	14	-0.34414501820714055	0.1555451869951264	0.3901066111311716
Si	8.215280800093343	13.9465304750494	-0.0910981140315642	14	-0.08757827496754395	-3.0021516412919684	-1.3207276948484534
Si	9.579973633026597	14.992412548827048	1.2948106895647211	14	0.779256513972716	1.2485323430113555	0.6090516557737014
Si	8.01989803026427	10.942038949593124	2.827240250555378	14	0.7352695299345587	-0.6890837366266108	-0.13761506982400976
Si	9.540968886961489	12.20949735697997	4.2173432883519695	14	-0.5521127286852981	-0.5266981239272305	-1.4438967523206792
Si	5.465723642119521	13.606291585524133	2.596492089628777	14	0.19177720316665314	-0.04314160460889268	0.634584017155432
Si	6.825683681597177	14.877797347314386	4.131598126918462	14	0.3603738349879152	-0.22682676800144377	-0.9892212019530329
Si	5.386669671433585	10.765146714195755	5.592252427158345	14	0.1001172985033741	0.44612713939921805	0.12370513293147661
Si	6.677269806820566	12.220937661160573	6.959866536052125	14	0.7104326525419282	0.2254453131129282	-0.09961464741328516
Si	8.188777156741988	13.496327577579905	5.491427606576653	14	-0.41171469446276004	1.0859865504505297	1.4991366930135286
Si	9.50118078197959	15.051246067473373	6.960127655691055	14	0.6635997120248991	-1.417710815966567	-0.5954715916937433
Si	8.044100556797556	10.60008646243738	8.254465065910217	14	0.3585388371209255	3.350430996853907	-1.9412171697493654
Si	9.34645107593637	12.194809377290179	9.454783086137288	14	0.8036442192659168	0.5755995186743188	0.5214037038519815
Si	5.451541581730157	13.884269761142123	8.375820418102748	14	1.7313015898806636	-0.7710027516739768	-0.7436348782041926
Si	6.853525563098046	15.170267662892972	9.768567292243501	14	-0.7536290216941401	-0.18009924280254055	0.2785527790532468
Si	5.660388332941538	10.837248374495188	10.777615176954642	14	-2.121286073509128	1.9683230475870268	0.6924380006272759
Si	6.854994361067025	12.318204726661849	12.207179920184469	14	-0.5034674160280964	-0.5427950430050815	0.4558029800505313
Si	8.199548341847834	13.714346156108688	10.962830600842892	14	0.8518724986401903	-0.45685970433711215	-0.31511929602692484
Si	9.692956836795949	15.033946891394287	12.26709055734138	14	-0.9952630423448487	1.0421859715480832	-0.8007126449798838
Si	7.984728478895939	10.650955832096352	13.518767546550416	14	-0.0938558857172175	0.9529796726918214	0.5814464692828675
Si	9.497606706921742	12.245205467603592	14.494816436891828	14	-0.32295113994262786	0.6651446892117759	1.8375021235715083
Si	5.4691181974256065	13.765248165722525	13.498840854104602	14	0.2903749784258197	-0.3198501298159973	-0.14876209693951173
Si	6.674528050611805	15.089826494125221	15.019764831004922	14	0.7935307764891142	0.49079032413657436	-1.4378857651927048
Si	10.770548626726109	0.1760762365257159	-0.23564415415653092	14	-1.850452009737498	2.3161023231641966	3.1754392547698407
Si	12.125988032454796	1.6766981614992609	1.324839448041625	14	-0.4492024384726471	-1.6739119480296385	0.27818151144501746
Si	13.78522381810064	2.7773174395875246	0.0951617884124061	14	-1.1635272302482156	-0.9079776162732696	-0.5214756948009457
Si	15.013726439354675	4.010063254974166	1.4704626066771762	14	0.6759497593196983	2.2726555283538024	-0.6315773665940508
Si	13.314392469155704	-0.061852714471449	2.6697035083936638	14	1.4317901886996978	1.2314468339379072	-1.2632560347377153
Si	14.857462655432743	1.2569157019650627	4.034216821575154	14	-0.610156202619237	0.14064537455433626	-0.7179058272654707
Si	10.708238952886534	2.899129751148183	2.861169483638793	14	-1.796436429398103	-2.3238665470099797	-1.7332589723608927
Si	12.188477226046135	4.150790420379788	3.8112696098615753	14	0.9466028172767902	-0.30923634994389404	3.093499413769382
Si	10.922259136944206	-0.1391278076171775	5.342719972206247	14	-0.5726676872777541	-0.8627814414030467	0.05171804062531063
Si	12.262357763885781	1.2745086376379444	6.5451922294544875	14	-0.008015163725029622	1.154557158007283	0.9442826518358884
Si	13.637250582714724	2.842124069974365	5.312266894316082	14	-1.405656960004649	-1.0447807310371766	-0.7047209420732193
Si	14.665686600616386	4.2595141100391	6.714658875119798	14	1.925821905313383	0.1486641378268141	0.6636462490311938
Si	13.460554187046549	-0.12904206156352171	8.041065040995	14	0.528860166390943	0.08850335866173321	-0.24520194350347804
Si	14.653724057157921	1.4480063177292306	9.245169295986551	14	1.2654491875758016	-0.4263800220983527	0.17153154854421113
Si	11.009864775805088	2.7676396929696963	8.08607553875549	14	-0.24609437416010146	1.0822198811565131	-1.6315329332587016
Si	12.10684469892577	4.30942060102952	9.539124729511547	14	0.7784319604965447	-0.5398935506512944	0.09859289015905831
Si	11.118441585667503	0.138393408632688	10.96286324079776	14	-1.0079319066993464	-0.44149940693348344	-0.39578438300965463
Si	12.446659269037779	1.3939708724482365	12.407572923085503	14	-0.4248792679229823	0.19562871893623496	0.7980908888849289
Si	13.554508297128907	2.649907375767313	10.811919769519017	14	-0.46294422507724264	2.2815042444236235	0.8129387649982521
Si	14.881420382304535	3.9255584118255746	12.554811759486931	14	-0.4248890381231988	-0.05252562480636914	-2.7406476045060915
Si	13.905599971647186	0.1198212743138202	13.908407007765678	14	-1.5608481057971908	-0.7869855136756132	-1.5667349085382019
Si	15.204719135254246	1.1546547233692581	15.526842849828775	14	21.65877961495957	318.275748440237	12.152737844315265
Si	10.958440526913389	2.913442371357012	13.71088632089287	14	-0.050081274978504356	-1.9084006098851238	-1.608716687537176
Si	12.277927022356957	4.0315729852309925	15.092437690514517	14	1.24597306477568	-0.10214718615363101	0.03990355456869819
Si	10.923058815838427	5.389835747055606	-0.1174548775860207	14	-2.6551380408791387	-0.09909219881223107	0.7091476141029183
Si	12.215796868269146	6.66507878367804	1.1821212453891654	14	0.2560172980326809	1.413058400889759	1.0097198533389773
Si	13.538498399267034	8.15724696034124	-0.0715794210215766	14	-0.7259410456119976	0.01154940509810517	0.14727445540127404
Si	14.865638964126726	9.393109891417604	1.3604822787555153	14	0.24778359035543873	1.2757932584998213	-0.5252793880115727
Si	13.525980976575847	5.414691072686217	2.642612345854718	14	1.1927961789917172	0.5734217924681534	-1.706825952785514
Si	14.873244073610552	6.848107330590257	3.793578754324095	14	0.41752102160725046	-0.5134687586129405	2.6983274680469864
Si	10.978726258862732	8.074031395409863	2.6941834745433137	14	-0.006099690261519302	1.0488533618642912	-0.9586587301229645
Si	12.318596406120243	9.48711296143226	4.072111809174813	14	-1.3905658573280395	0.5897243999716163	0.4149979959565892
Si	11.115569269639275	5.527266277019741	5.364833541628097	14	-2.3021769596397426	-1.4358664190742607	-0.4185916298625602
Si	12.228020531366537	6.907789488063103	6.661178309071529	14	0.9303863418015522	-0.17627626630201235	1.453650754573725
Si	13.590885526827284	8.153526005486492	5.4222145822828764	14	1.960184727917162	0.47450417170716036	-0.18968458054658463
Si	15.022131227732723	9.397924284760368	7.005105513496678	14	-0.26501693798479525	0.20055598517176673	-1.160040554323563
Si	13.613505015549562	5.75979331548655	8.173273178180542	14	-1.0464815172064545	-0.8168239622475277	0.5379893900511926
Si	14.936728785825311	6.966443486957665	9.695160033749417	14	-0.7537046121905525	-1.4281939836884068	1.0200976057426911
Si	11.073953327184872	8.22890798124998	8.132195794981431	14	-1.6299594168027711	-3.2346721220248806	-2.212438956203274
Si	12.28531997213415	9.551707432112469	9.600014565314446	14	3.9138344774421028	2.826169252328049	2.0007040622100356
Si	10.637475530736612	5.423144820996563	11.11248479390442	14	1.4992207681574974	1.4545398427934322	-1.924310866716732
Si	12.294377559609522	6.7611871307815665	12.251113299434374	14	-1.706668601139921	-0.06013146856443119	0.15685490804520982
Si	13.580359141382935	8.296048368409755	11.097095055185006	14	-0.23423566509198246	-0.6809986388368732	-1.001950744393086
Si	15.052763825374651	9.629765884174986	12.25899584853456	14	-1.0666274129424749	1.3638507874990409	-1.3405254629241257
Si	13.456115153184745	5.330757428747784	13.604969667352051	14	0.8611878703256188	1.1099986172564569	1.2024730480851586
Si	14.874386472030867	6.832946071554907	14.990307271738178	14	0.5956680241402026	-1.0015133993781287	-0.98424277072163
Si	10.672351322511146	8.021774827669075	13.511554116524986	14	-0.06454708484125349	0.44841516602361786	-0.18143621756901757
Si	12.154662232804753	9.496154228930196	14.856189697192962	14	-0.643127028802688	0.10510498571392937	-0.08845836431863063
Si	10.865955214800012	11.10590784299888	-0.2265702467037273	14	0.1772784831558061	-0.4433596016326107	0.6059920404427253
Si	12.322186801155524	12.426993696230893	1.304292596453352	14	0.4438504256382269	-1.0584237871974784	-1.1709453833179069
Si	13.904229093542805	13.950463589610779	-0.131049418787793	14	-94.9844860243547	-189.26729580955626	28.894398862220616
Si	15.363659395475205	15.286629101990975	1.2757163159679938	14	3.6245514474457505	3.048349518794921	8.613275327666091
Si	13.523320820254252	10.843972205197627	2.6383528317446783	14	0.8757166722687116	1.2137751128514656	0.13675786331027234
Si	15.083722822565242	12.299453072591216	3.9722335472842407	14	-2.175367988365783	-1.0466069871460777	0.183301554478785
Si	10.799271787008365	13.436319020558395	2.6376347527376223	14	-0.8099475410687919	0.47415038761510797	0.014044405700776868
Si	12.18991338406025	14.69618863843885	3.9033142825842595	14	0.5886406790791738	0.37570276490663806	1.9675398889065097
Si	10.815885524035261	10.876073600808533	5.537890582328689	14	0.5072153162532762	-1.4600319808678006	-0.5983522580944372
Si	12.183156913402946	12.209481037002536	6.768204721077799	14	1.4530180055544364	0.3068477931014765	1.289307502283584
Si	13.71103320068977	13.522227381766234	5.490138328359438	14	-0.36182805215699093	0.5500010798858606	-0.8191628967572665
Si	15.096958324263486	15.073294356985492	6.75462649985346	14	-1.4986548678765328	-0.3248964382278519	-0.47104063573038896
Si	13.706267767279302	10.943948386952798	8.272335441199461	14	-0.4913549388648789	0.2647636841107607	-0.7593582156790261
Si	15.16868462508196	12.415847151644085	9.521221714267437	14	-0.3593145395960142	-0.5039911501818107	-0.6545949298621444
Si	11.015642047816405	13.592550164525463	8.30770083229699	14	-1.430210244480467	-0.016311863482615457	-0.6376721717554618
Si	12.402383170261778	14.89018421018611	9.690704679910182	14	-0.9696435204927651	0.374851986156201	-0.3076844307726526
Si	10.48158710629564	10.812115609248215	11.067098936662969	14	0.2873145917632475	-0.7214246420066254	-0.5266294754151825
Si	12.073046025661819	12.186747308438228	12.248518423022512	14	-1.39817401508089	1.4739108073859597	-1.3100843472651682
Si	13.609849340604548	13.410500816259232	10.979493297802088	14	0.9807491528126128	0.397822241086404	0.11837780270812981
Si	15.004799411698771	14.884015258716397	12.232133165679679	14	-0.9078374910333215	0.9682749211308502	0.6648574967475155
Si	13.630820511606082	10.906526678698699	13.566226040925873	14	34.444985616721326	-15.350225869868568	30.56036712325313
Si	14.779322603483061	12.166167816895088	15.130006278565514	14	2.449332115754162	0.4791288188465107	-1.463113964815062
Si	11.048918481802495	13.792420928148637	13.588682329873816	14	-0.4540746830543278	-0.3612282132858004	0.4539247876141631
Si	12.147922082124882	15.246057638092289	15.128504840641668	14	2.6332257957881766	-1.8171569671731767	-2.614775286900262
H	-0.2751988834611354	0.8838916097744394	1.2803887255070905	1	-13.187475837971945	-1.6057077229810064	-0.13875252681764322
H	-1.1455906079029143	0.7228819764149613	-0.8132979153898219	1	-21.922093195669767	-316.05489914142095	-14.285177372703199
H	34.01394519027689	33.85970018756343	32.146107453081164	1	-2.0293454041448893	-2.5421433613798032	-0.4878551503030933
H	209.97187819958026	210.27074594631262	211.95289824427002	1	84.55962377208098	182.02963279067623	-33.29749385613381
H	110.89615772727191	109.09199727802466	110.93195722976915	1	-33.775548210067036	13.052630877019865	-29.568914458992737
H	192.07161613566254	191.92385669198094	193.69073252078456	1	-0.19988646934640017	0.9638451637747673	0.7231981904564635
H	1.8948554598362253	1.8796256568956564	0.039851752893886885	1	-7.360055345435043	-11.146781574943923	2.0553313085050937
H	110.93978755494156	111.16106523296375	112.81784159801042	1	-0.9844618288949065	-0.6206211154933038	-0.7947772483483221
H	108.93884571379922	107.00888924649988	107.20444011209652	1	-3.8305779734071965	0.854160268154058	1.9269596194175485
H	31.11855924195186	31.025119211158646	32.87701069840449	1	5.40481536726959	3.2595295682600716	-0.9781744479450165
H	113.88074704024852	113.89770512879926	113.95600498418352	1	0.9277751272384098	-1.7267178233159037	0.3210402944686938
H	119.12377806230243	120.8389195626431	121.01218549905482	1	-0.07346264964939898	0.23340931184208688	0.14036769517976028
H	138.057923752589	139.89859851934506	139.89502934028044	1	80.81281600955167	-21.21141294568551	-93.97113422764046
H	70.96119742844238	69.16862905916584	69.06113263180949	1	-14.427910998998557	-3.7907541231034227	-2.972238373555238
H	68.0972029567099	68.06445692199038	69.89793784269395	1	-15.444127778371017	15.71690328376989	-82.78347336365884
