72
config_type=liquid dft_energy=-6889.017187264791 dft_virial="17.555579014774075 7.112537564733301 0.432663646731787 7.112537564733301 51.81776041192702 -19.458544414498476 0.432663646731787 -19.458544414498476 54.583537618796775" pbc="T T T" Lattice="11.105996452100001 0.0 0.0 0.0 11.105996452100001 0.0 0.0 0.0 11.105996452100001" Properties=species:S:1:pos:R:3:Z:I:1:dft_force:R:3
Si	-0.2587252933481216	-3.02862855508022	-4.573364933401745	14	-0.16590699854585517	0.6976797130434619	0.1840811136118539
Si	-0.14629262766564208	4.671850688739677	1.2324613018803126	14	-0.4425797853890097	-0.49855866175086977	1.4173562605429186
Si	-0.8858209406173674	-5.185155406960351	-4.107337331478015	14	-0.854316334246991	-1.2444594550737087	-0.50290254418926
Si	4.7259913108440195	4.234359944699618	0.8105922524497775	14	0.44451351370029313	-0.2998145344982114	-1.083910125793978
Si	1.042260006641648	2.8696917504538617	0.3909188585178227	14	-0.3159695605562978	-1.1005305219150114	0.9832071294986744
Si	3.867180153598159	-3.2698763418116714	0.7781882866014854	14	2.6068961346466684	0.3719458658128377	-1.029089532378845
Si	1.7345578484815274	0.33417276964581777	3.391990104601447	14	0.1624714876170733	0.45407391172273176	0.044640559010539003
Si	4.790185080936802	2.5523834364205578	4.795408231068225	14	-1.009589498299246	-0.8365613093481766	0.9583571394689111
Si	-1.572686839592525	2.4274898427188223	-2.634360128032444	14	2.8656753140142524	-0.6258342886404361	-0.44654314424001806
Si	2.306804311072787	-0.6190504634393444	-4.001295056154073	14	0.6151755144252301	0.6256733374473947	1.006192811060798
Si	4.234909691523996	-5.029746977406826	2.3382564930251344	14	-0.7946535781824229	-0.3323328461453162	-0.46099841257095453
Si	2.062164753024864	-2.953052249223679	-4.3772063816661735	14	0.31549184918781426	0.19395132982537036	-0.16440110215984444
Si	-1.6240465201852612	-1.2314873059914633	-1.1064837629248518	14	-1.944195795262757	-2.3242537554711937	0.7979875304510589
Si	4.744586080703771	-0.4926053620332504	-4.206905921470027	14	-0.728519607137574	0.016264812255256746	0.5482529853786918
Si	-5.462186714260469	-1.9240816779366139	-2.495431886614189	14	-2.4585811529223305	2.1509990521414193	2.516323036202216
Si	-1.6626942772389242	-1.3918545629608519	-3.3660476074889867	14	0.10678186060372996	-0.6836489342008818	-1.8931956072428318
Si	0.5221828517844831	5.322598776652961	-2.316853016662647	14	0.6725828969029645	-0.12811020767648632	-0.18593205233182847
Si	0.7373604224442754	2.943902018746794	-2.0211858473159054	14	-0.16449314773030574	-0.7435965687349223	-1.4957484904226375
Si	-3.960015177941263	-4.729444165140977	-0.6709143562710063	14	-0.08105460943873222	0.40537460585380697	-1.2731226514037834
Si	-1.302785582014655	0.7970418261785704	-4.37517842671402	14	-0.1975655325739025	-0.6939778356035126	-0.3473061921982626
Si	-0.3375823105566125	-3.183431707827106	4.204560335019344	14	0.7559039356814071	0.685859570555145	-1.401513880891762
Si	-0.7305480042205572	4.221212666099622	5.05581830407813	14	-0.5914856071159177	1.0666752355014297	0.7042334605045193
Si	-2.441651098794895	-2.5258911924837184	3.488353504017383	14	-0.5388195999590685	1.198051261155568	-0.40864865136848355
Si	-4.935346007563975	1.363719742148747	-4.588724526494999	14	-1.707048610506239	0.26409262562220204	0.7105756059977285
Si	5.542589686175092	-0.4919101266553489	3.08508366684518	14	1.48502569568496	-0.37201451432488564	1.5263143046896217
Si	2.3371458933799243	-5.468361648287837	3.84058351329467	14	2.0620642620069654	1.0182965464659273	-0.5553718617891178
Si	-3.686155743227865	-2.566254825989231	-3.7675782456167903	14	47.263977839304545	-30.199132225093496	-29.46814178574326
Si	4.094357753424445	1.2702161368192266	3.020913219344946	14	-2.1939987317366403	-0.2712001891692194	-0.8946374363196813
Si	1.914948106454407	0.6591097926420693	-1.880937102919496	14	-0.005425546446576476	-0.810472560775166	-0.3163295153011185
Si	-3.17285102500719	-4.9087171598707755	-3.3804620802841665	14	0.34728382358197735	1.015650364870431	1.8726475906347404
Si	-4.148576117503953	-3.1397662615763844	4.961949311465336	14	-0.28067445516343303	0.7074504274810886	0.8896374078035894
Si	3.788917307199856	4.839602322750067	-3.7397654987017965	14	0.20067451312702558	0.6804890457624199	-0.78828417897282
Si	-4.79675649903751	3.208221402507838	-3.084375104271536	14	-2.117612478227701	-0.4232964954878991	-1.3769140594096492
Si	-3.353437859117272	2.986668989884541	-1.5113428681893504	14	0.05589402988629514	0.8200571271876139	2.7242562938690837
Si	0.8734166531800168	0.46991025828338395	-5.479888562005471	14	-0.4905355275993477	1.3618448111282615	-0.0045595981747506035
Si	-2.0362633480992764	3.2641323204466453	1.5932662510182662	14	-0.6468199073740165	0.999605896341111	1.59604936584587
Si	4.793564635657177	-3.864297036919194	-1.5230685792434775	14	-0.7263531937948173	-0.7555133847832767	1.3627706661540469
Si	-3.7937995032401988	-3.630347000456417	1.7920380437190162	14	1.2236350446437017	1.1595962673242413	-1.2231100249373272
Si	1.7152689538435204	-2.7404490485414836	0.7888189464054356	14	-2.037935724130036	-0.28653451840911454	-0.4996025305108498
Si	3.17211136564348	2.3461106537160594	0.9814668926624978	14	2.5203270185172824	-0.12141582075441677	0.3203052154576635
Si	4.932691674411924	-1.8725676239931934	5.093646438593629	14	0.5855931479432024	-0.199085312928642	-2.1985303048634015
Si	-2.031777636132273	0.973730455533965	1.3590163526512826	14	0.11726220010971754	-0.4108934834235048	0.7064469250746347
Si	-3.094852501324447	1.3158606716377124	5.281475492990125	14	1.9735686166611925	-0.004435413787787451	-1.897502465764612
Si	-4.765772990135441	-4.823035507842469	3.4475711744456263	14	-1.4784629493552819	-0.395183258585804	-0.3836310252718466
Si	-5.253267372601435	-1.7313104551189336	1.255077553055369	14	-0.9066774083128708	-1.212719931228077	-1.1732490936847595
Si	0.838972515783474	2.885910947672509	-4.9746134792196655	14	1.4193820344246633	-0.57412833221013	0.3147341444499666
Si	1.6712858760942688	-1.9422599729294114	3.0299257354658247	14	-1.6711881190534736	-0.9857890334611671	0.17666090365790654
Si	-0.00514762935554835	-4.817198196107245	-0.3122217676582421	14	0.4639572405733809	1.8161534647667226	0.47797593522095627
Si	2.9479168364642283	3.9600118461423275	5.292547060853223	14	-0.7037200107720857	-0.7072879336248552	1.5472348744586026
Si	3.0195593983774347	-3.1503980319799796	4.393383376098303	14	0.13237644273420804	-0.6821528080150876	1.8951365346490117
Si	0.3257999589205796	0.5624554161190881	1.4076983774994178	14	-0.5032277890122586	1.830725718389726	0.23485041637402987
Si	-2.772043387248418	3.4747075661766877	4.022810703080727	14	1.2874997581329877	-1.2035793947044184	0.19959670577681948
Si	-2.7508675838131986	0.7270318457438223	-0.8870903560118424	14	-0.4838321418086576	0.9727697274515331	0.679590187342496
Si	4.104387578820337	1.2133212275947636	-0.9554377687777109	14	-0.28183659476813994	0.37827901243742645	-0.011133914478369242
Si	-1.9337860976364591	-3.512838894395328	-0.10857111071608441	14	-0.8042265746209303	0.23272436938479943	-0.8962747161875517
Si	-4.870681343221623	-0.17146881102290754	-0.5924671503315979	14	-1.6050343504976594	-1.2511188749634243	-0.7533050624238015
Si	-3.7929754383034533	4.376718828421926	0.5248227471411473	14	-1.30649996933835	-0.9363081115749172	-0.7146022140396124
Si	0.09938089865197165	-5.425661313128803	3.398256107799721	14	-0.32443749592820553	0.11149392532396532	0.18940150185083632
Si	-4.881872855846404	4.230717177863329	4.473777463215764	14	0.9112097527712278	-0.10194612571759544	-1.654495731983476
Si	-4.867142972751984	5.09418174762262	-4.550090096637079	14	-2.6182244246872406	-1.4441512917473738	4.555063259186926
Si	0.6259173010456779	-0.8643163996871661	-0.3229257270387761	14	44.79098306995747	27.301934388522632	22.96252335939472
Si	-2.9789780873414617	-0.11992810268800187	3.327487587807295	14	-1.2943430120530937	-0.3957599575091132	-0.04697769374655361
Si	2.5582640615419447	-4.533110138661463	-2.6293202268424807	14	1.2265380796606808	0.13919861359068894	-0.7914404678638338
Si	4.218497249967084	3.5572195668175643	-1.8079584896331016	14	0.781198726931556	-0.4949112917437077	0.8856038577773411
H	34.595976358836765	36.51628310857931	35.49136400479797	1	-0.05238832778227323	0.048542211333863716	-0.12099133126606033
H	37.3676910085902	36.40918243179348	36.676844720486606	1	-0.14380526299279825	0.269474720388868	-0.6019741741589298
H	40.13028319285788	39.04373580416419	38.74891046934852	1	1.7706816674061798	2.1457820223363067	-1.8973392005767824
H	33.027754129817986	34.7385373716945	32.997093805412675	1	0.031289580414606076	0.25325490247671384	0.15973737421962783
H	51.215674689740304	53.363019103753835	52.152616532026684	1	-44.19970417970928	28.513234041171856	27.1498223984615
H	44.39251696745298	43.136666437044546	43.73370259431654	1	-41.40123010255827	-27.2127676846883	-23.672817429359892
H	43.07978041261725	44.41129942865277	42.29419553237866	1	1.0208036312636037	1.2868184152231483	-0.2114196764809884
H	20.198489074630015	18.652990824951875	19.969277966853348	1	0.05625527018377594	-0.23054098674692966	0.5483807693131031
