223
config_type=interstitial dft_energy=-23318.594198765513 dft_virial="44.7067876425752 4.330196803445285 -2.23494028564918 4.330196803445285 51.34376209799411 -5.754971235546638 -2.2349402856491793 -5.754971235546638 47.5483545771863" pbc="T T T" Lattice="16.3199774331 0.0 0.0 0.0 16.3199774331 0.0 0.0 0.0 16.3199774331" Properties=species:S:1:pos:R:3:Z:I:1:dft_force:R:3
Si	-4.448858488217926	-1.4488712765331848	2.186485296577006	14	-0.31767137516770383	0.9611789275577737	-1.460790199826712
Si	-0.1467492370784352	-0.12060463323060899	-0.0018278374725072	14	0.24149466674235653	0.3949102072008042	1.0671051243109584
Si	1.2624808142697497	1.4388671303666944	1.2695636844757152	14	0.001376055567343252	-0.772708422943363	0.19662527935832433
Si	2.612453027558349	2.8031682838415555	-0.1014939396564489	14	1.394031964410131	-0.7163742198262585	1.486869178199506
Si	3.9665541951375216	4.098746012345632	1.4118249277600479	14	0.4409427626316714	-0.7653077533898488	-0.48459704564140166
Si	2.6023509615272595	-0.0353001111877953	2.609907111078785	14	0.42917069981284145	0.7778007541404484	0.04755336422773477
Si	3.929540486319251	1.3192906557143709	4.155131534376992	14	0.7590244862084708	-0.6203022984336053	-1.6133616464085552
Si	0.0751698160568586	2.8520302962762565	2.7649795366481014	14	0.16710461940398016	-0.3419513511479902	-0.366291233882236
Si	1.373783060363492	4.0646046195555865	4.260738108346582	14	0.7807027607152994	0.96819573108699	-0.25289957572146937
Si	0.0083558284457472	0.15753674216171432	5.430929450232152	14	-0.22552424604625673	-0.9015364832252346	0.21778521903261103
Si	1.4431266444767339	1.4058518160195332	6.719652788214327	14	-0.18157891391428574	-0.3425285642923634	1.2666488653181827
Si	2.8312060050716212	2.7042202606646697	5.5316237109943796	14	-0.160209429156407	1.4365567608527203	0.006391767825888125
Si	4.102695446884442	4.135172201976311	6.964615649485157	14	-1.1639892578742461	0.4567648305507987	-0.20284092646978236
Si	2.800850847046055	0.0015177579012783	8.158340398829257	14	-0.9374131726415169	-0.18486041563439073	-0.8012865156873409
Si	4.10941927758688	1.280808148927121	9.501637741347718	14	0.7485850272770737	0.2712716658971195	0.5222927920716887
Si	0.08982515579178241	2.864319239283381	8.022802986247362	14	-1.1330714592889337	-1.1314393216317036	-0.2650367354957604
Si	1.3392499881150521	4.004628702488944	9.494767030848383	14	1.7370819488614206	0.027830672427410868	0.058391601594286975
Si	-0.1198212743138202	-0.0051081529365603	10.712710626703203	14	1.4075392662095292	-0.5032249607964066	0.4404380546573264
Si	1.634119340376303	1.1379267465003304	11.94664780044246	14	-0.7947229980260668	0.47993845991182527	1.6199300491699373
Si	2.9460170463134796	2.750568996574674	10.845800042670135	14	-1.4026999317759463	-0.03418927299466908	-0.515874284750471
Si	4.013882129693512	4.261700987015135	12.218783424139403	14	0.9355946298485762	-1.196052998100749	0.7412614908831638
Si	2.9177345254219174	0.0963368267875893	13.774566872836825	14	-0.7731797065485461	-0.6633842533990706	-0.8915917049574339
Si	4.276584806434123	1.532592760764988	15.078320910034886	14	-0.6414586385604438	-0.2507689007426626	-0.3734023969767015
Si	0.2434287833921196	2.427874082789988	13.56253772602599	14	-0.5927179378958647	0.6237570926522884	-0.5210509482020572
Si	1.373162901221034	4.071915969445616	14.89760979991817	14	-0.7925774106364033	0.5220151126971126	-1.0241807781016183
Si	-0.0058915118533491	5.495328081183165	-0.13566797240136028	14	1.0066517533604444	0.026937213328659407	0.8715419685603872
Si	1.472078284443053	6.833549910719931	1.3378301500783727	14	-0.7858272307288866	-1.3692063998809094	0.35333749105826595
Si	2.8159141862168067	8.098380801740047	0.0354469909846932	14	0.47045210972260704	0.913140909977191	-0.3628688355905869
Si	4.062075023053456	9.630696122888672	1.4107314892720302	14	-0.2626306951371658	-0.6387322384789589	-0.886557994961648
Si	2.819325061500324	5.469395637041969	2.844637346499062	14	-1.0693139608914977	0.1729641684285976	-0.03777699335840371
Si	4.307184764121185	6.908540207025026	3.9255584118255746	14	-0.37900123592185603	-0.08887848292794283	0.8273796351393957
Si	0.005711992101585	8.078258269565035	2.696729391022877	14	-0.032106934795881156	-0.6450005932494799	-0.073272130745176
Si	1.5113441501470917	9.344835398170494	3.9763788215522484	14	-1.0647751886698402	0.9071240093069803	0.34682128173488264
Si	0.07898869077620399	5.617156712721257	5.528082275891396	14	-0.12226737083644978	-0.5161892451521891	-0.7950261313433123
Si	1.4406133679520363	7.001498798483963	6.807764346375633	14	1.09370063774257	-0.23880657613014175	-1.7489298592871951
Si	2.974625966753704	8.277345674271421	5.364001222779009	14	-0.07981276556910069	-0.7546487220641109	0.7521025564655682
Si	4.2811870400702565	9.638382832259662	6.824084323808733	14	-1.1639771736792415	-0.28352683940560525	0.17918058687165167
Si	2.5333990568724123	5.619115110013228	8.21909967481269	14	2.104255328979	-1.1194466579764049	0.6174414295438766
Si	4.267119219522924	6.84786253092876	9.576889157291742	14	-0.3368538777402646	-1.1507287821855825	-0.9067334584088499
Si	0.12770382341400752	8.079302748120753	8.195207227850629	14	-1.0483028882152476	1.6250563189572484	0.9604680169367528
Si	1.384423685649873	9.596603690030927	9.604861598612075	14	0.21289137716624115	-0.5347575106637666	-0.3879165436194695
Si	0.1419511637131038	5.316820168019917	10.853405152153957	14	-1.4984972591204078	1.144383037144925	1.1638475899711063
Si	1.482000830722378	6.791950288242959	12.183320113177276	14	-0.4215445443227503	-0.08533987067582302	-0.5623809520023735
Si	2.9101783758703923	8.113688940572295	10.83778693375048	14	-1.3986872077027914	0.9311754140243057	0.45844839031443163
Si	3.9671417143251135	9.363636012173423	12.459584691164794	14	0.7526332326036468	1.2077132178381524	-1.0266148435082023
Si	2.7426374875421877	5.529534753882942	13.649702725496178	14	-0.2917397211297543	-0.18229085297743478	-0.057762966343510774
Si	4.183185575584492	6.844663815351872	14.89850739867699	14	-0.8305786043787239	-0.926024975846985	1.3251247991669706
Si	0.0935624306239623	8.084051861553785	13.570779314629705	14	-0.6146944606198305	0.9020756440108697	-1.441898746376392
Si	1.3902172776386235	9.390237575389376	14.978230488437683	14	0.04221780646736347	0.21705836755860516	0.4863333130640976
Si	0.0049123132073631	10.715191263273033	0.0060057516953808	14	1.0034391572629195	0.7270826163741433	0.2168732479755545
Si	1.4032732595851036	12.285809571457145	1.3189805761431421	14	0.039149449378298756	-0.8879448491713359	-0.4855889780739148
Si	2.8551147720111123	13.577242025693215	-0.0645455107479105	14	-0.7172386254348923	0.19666050350121037	1.2477625540785031
Si	4.153711696340313	14.935831187066489	1.3725101021237098	14	-0.36181802484624237	0.656583936937811	-0.30795645371552427
Si	2.731980542278373	10.94060279157901	2.770609928862521	14	-0.10275653811450612	0.3119807477626201	-0.6681287140463399
Si	4.181798377502679	12.312084735124436	3.982743612751157	14	-1.491015085528245	-0.2670751077935738	1.018689668469378
Si	0.0264710033964882	13.434621742905353	2.7674764931953657	14	-0.22547410949251384	0.8149851077225578	0.48071467660797806
Si	1.313921383138881	15.039201924127745	4.106138962122826	14	-0.4503149557446752	-0.3901724314273674	-0.7927959545886158
Si	-0.0641864712443823	10.59772006570958	5.299602591827996	14	1.886063361084741	0.09795165649221338	1.806625205560786
Si	1.3835587268459189	12.264626240748981	6.713467516767182	14	-0.3564544420378815	-0.5777348216427017	-1.2973548048251153
Si	2.7762240010995076	13.70509272890412	5.294788198485231	14	-0.4109230511346865	-1.0787982541964598	1.0300025318780297
Si	4.0729767679787665	14.794206422902048	6.893835907357802	14	0.22373578518556173	0.43389716272286966	-0.23076004492020627
Si	2.6997975467803	10.968771072628542	8.129176599156308	14	0.04902172247607134	-0.823234242031721	-0.10920667003116159
Si	3.89536645357434	12.235658280805229	9.625441090155213	14	1.246683718286169	0.20137076844772167	0.12300784916865246
Si	0.0376175479832955	13.596124239583311	8.068058283669348	14	-0.3838750231667287	-0.2643476792699608	-0.3230609261397982
Si	1.3149985016494654	14.969907299946803	9.337638288122497	14	0.3352217400830346	0.08168838690014872	1.7027121842732773
Si	-0.1371367703703393	10.924494973852543	10.871275527443203	14	0.6161044547773996	-0.2922269455879224	0.2688802808388498
Si	1.2787681517479834	12.193471139140664	12.329139111542025	14	-1.0450771794805898	0.7806197140134586	-0.841724088831034
Si	2.555153586790735	13.611383418483259	10.972312507731525	14	0.43574578744805614	0.45487352547729776	-0.246902986783288
Si	4.118754304678613	14.87123671638628	12.359412669680427	14	-0.8353132948257767	0.5921929181894905	-0.3989836093595149
Si	2.551954871213847	10.834017018963436	13.589857368249001	14	1.224997216242316	-0.07325773255538318	0.7932502688986861
Si	4.038362095843162	12.221655740167629	14.905214909401995	14	0.3928445811865973	-0.31805344141827785	-1.1932672054863684
Si	-0.0055651123046871	13.758916014478483	13.596679118816036	14	-0.024260949800917274	-1.2907673758843639	0.11422932427407087
Si	1.3680873882393398	14.959397234479885	15.040687042074158	14	0.5773165028071138	0.6797925333311916	-0.4929251128838933
Si	5.571052776472748	-0.0347941918873692	-0.0326399548662	14	-1.1015540789429625	0.8827077647447262	1.204768016693923
Si	6.8511265264153804	1.3658515513310052	1.358311721756913	14	-0.6116140193357611	-0.03180277303650763	0.035994703150477064
Si	8.074047715387296	2.788121264648237	-0.0132028617433779	14	1.2621764276137852	-1.074318360286634	-0.630417026763068
Si	9.432587916828272	4.045102246523032	1.320955293412547	14	0.896245662697434	0.6311924721276245	-0.03300399344208082
Si	8.206451692302036	0.0339129131059818	2.6913764384248204	14	0.0898467611915106	-0.30177088853631207	0.15130594854326623
Si	9.470841943931458	1.3807680107048586	4.060965264588005	14	-0.3045219712288705	0.3130174174277038	0.8135638007015801
Si	5.383503595811563	2.6504459350226055	2.7110420112317057	14	-0.8472026000472054	-0.410965988593533	-0.13353781100731893
Si	6.5931076831980695	4.102303767426048	3.9854200890501854	14	0.9314098988295032	0.3620741069361291	0.8130783760171361
Si	5.251605538197249	-0.0679237460765622	5.488130971135167	14	1.1341955465349023	-0.07713135983071827	-0.4503080137603108
Si	6.632422508834407	1.3784179339544922	6.742060117229973	14	0.33750796693371027	-0.7360454895201795	0.6752691877414551
Si	7.953965321434545	2.724326472862249	5.444475031501625	14	0.8054511920849168	0.5350812128235732	-0.9878947687183682
Si	9.375533275722155	4.170390713276941	6.739954840141103	14	1.4388507010193565	-1.5845390415486313	-0.6269689174182174
Si	8.135916749836177	-0.056140722369864	8.109037747003862	14	-0.28793602791912726	1.063849847865119	0.35160430896195416
Si	9.457426922481451	1.4662683724768695	9.477859534227692	14	-0.26314183087481124	-0.5887530363816643	0.3526229808897968
Si	5.419162746502886	2.7364685360724756	8.254399786000484	14	0.6372651657832823	-0.11794611412487693	-0.21657371420575722
Si	6.875704412429629	4.110904395533291	9.515281242481791	14	-0.5195432520423223	-0.41700062989045256	0.10668775814901252
Si	5.408930120652333	-0.1617472963394541	10.85188739425268	14	0.15389196627427118	0.6707779809682204	0.3474324334694819
Si	6.78927381194393	1.3326730372095128	12.176008763287248	14	-1.4141832594673238	-0.29927254549672416	0.26118084884713433
Si	8.045340875082472	2.745052844202286	10.966012996442348	14	1.6046756813054988	0.3586473377654358	-1.0554382196997223
Si	9.516847960315367	4.2239528792123755	12.119655881210754	14	-0.3219661494944792	-0.855650480797616	0.6571385243553669
Si	8.133321873424315	0.0570056811738183	13.510379078149803	14	0.6375868110588329	-0.5219639477012417	0.5112866615277308
Si	9.526884746436725	1.404154538366491	14.847670668972883	14	-0.2157139365866997	0.020580926756189326	0.5605873489310382
Si	5.497645517978665	2.813808909127937	13.53926543820639	14	-0.13753073756950887	0.1798084507908318	-0.11486078774069924
Si	6.870384099786438	4.14506210830077	14.959397234479885	14	-0.5416457589269752	0.40641050418729463	-1.0187701440658985
Si	5.354160276386849	5.366416579439107	-0.0346473120904713	14	0.11682639775795244	0.029823536161057644	-0.1355831252894967
Si	6.78321910031625	6.770293678189236	1.1384489857781899	14	0.6766285311242174	0.7117631995451049	-0.23688107535588282
Si	8.335216314249195	8.254334506090752	-0.050999929478437504	14	-1.3742799620091577	-1.0684266724455143	-1.1608751351104831
Si	9.503922538188352	9.556848225003895	1.349025654597479	14	0.27756881704722614	0.6708304315167515	0.5463295414886891
Si	8.02791113918392	5.436984161859831	2.5619753373577705	14	-0.08925540696787654	-0.47687987302297724	0.8473244704393804
Si	9.447243256563194	6.643977052857042	3.9891573638823656	14	0.32366333611630893	0.47529838614055414	-0.4657657560555731
Si	5.587503313725313	8.258969379681751	2.4410443045784995	14	0.01541043395737154	-0.2710739478980001	1.2256261086036242
Si	6.8827220027258615	9.480927689985114	4.024228995386097	14	-0.09755416360971848	-0.10427503291658557	0.10829007098452881
Si	5.369109375715569	5.478681704201403	5.5333536286022875	14	0.41002830648327504	-0.02287203870697328	-0.9958356274996456
Si	6.855940919758145	6.782321501557431	6.764222646584122	14	0.2566757581051709	0.26560006467140485	0.2185868896714332
Si	8.292392693464741	8.062656371138992	5.361226826615382	14	-0.6492786553916743	1.0597566481954432	0.5795065703188158
Si	9.6288846053936	9.64236490675334	6.69892641687429	14	-0.8768212191142472	-0.7187926014903897	0.4182504441865766
Si	8.211396645464264	5.417416508917546	8.139735624555524	14	-0.5109935555212339	1.4975806600737749	0.9453661156177989
Si	9.51823515839718	6.938193606020969	9.489675197889255	14	0.6145083125946517	-1.0939634047062894	-0.08246254671204531
Si	5.573304933358516	8.173028378519048	8.172653019038085	14	0.41980981956324637	0.6849972218307674	0.1508642326492648
Si	6.9161779564637165	9.647815779215994	9.63621227526106	14	-1.7874838406733473	-1.3458594780213047	0.22749371272149013
Si	5.565030704799934	5.377285684409552	10.97244306755099	14	-0.5491700986463887	0.5708607144587539	-1.254814838861137
Si	6.805006270189439	6.8440926161417135	12.173936126153244	14	0.08107286428650526	0.3478258125834645	1.46349783083936
Si	8.154733683816541	8.177957011703844	10.912532430394078	14	0.7918626433574022	0.5214258153577348	-0.22568494012876597
Si	9.667497672000314	9.548851436061677	12.147399842847022	14	-0.4834770721639452	-0.33104189416406987	0.01563926233086472
Si	8.249650672567451	5.574284132004502	13.585108254815967	14	-0.2136665654202658	-0.5895343952884573	0.2092512062539755
Si	9.716653444028811	6.767519282025609	14.92093104767007	14	-0.39940527063201914	1.1318905506153896	-0.07570568193069616
Si	5.484981215490579	8.16741430628206	13.70215513296616	14	0.9168818682180064	0.18802338939923693	-1.1156751035822796
Si	6.783643419729511	9.622226054600894	14.929711195529077	14	1.1996376331380993	-0.4208732287236596	0.00986430267128012
Si	5.339668136426257	10.895184294382695	-0.0531868064544729	14	-0.16893627483405366	-0.17216069801605136	0.04720240835153455
Si	6.525298176963538	12.129904827038741	1.444987121904107	14	1.0605403210970243	1.4383339088500067	0.21120447496569197
Si	8.04227271932505	13.509138759864888	0.1122651247622949	14	0.06939053304334844	-0.4232224476546789	-0.37151623411384094
Si	9.4818089687665	14.958434355811335	1.2861284615703117	14	-1.399200400324693	0.1279428287201447	0.22007401698860682
Si	8.144811137537218	10.957281808515638	2.706668257279635	14	0.13526713644565053	-0.2534279378647598	0.2383990559368982
Si	9.41821001670971	12.244112029115573	4.312586676651541	14	-0.46567808136415606	-0.07930291538411532	-0.3387392692715292
Si	5.444638231275956	13.73505620747129	2.8739969859012096	14	0.8536473326426885	-0.2695292278216551	-1.6622082766123243
Si	6.917532514590664	15.00527269104433	4.079504758952007	14	-0.7940339418002672	0.5522086309137397	1.0702855815919816
Si	5.440786716601744	10.929619446766534	5.303372506615042	14	0.9464958592954721	-0.6885998546053589	0.41871607136005534
Si	6.741831637545909	11.981621512081594	6.9403152030872715	14	-0.1871445856008103	1.9469062544912572	-1.3752636669046463
Si	8.056569019556445	13.679911003724845	5.639792521420966	14	0.26117236419957784	-0.7633074334507736	0.003885711470339792
Si	9.600128805156476	14.853284741209869	6.975190994861807	14	-0.7043558451177583	1.0192162308389443	-1.3386791521937271
Si	8.149837690586612	10.83435973848953	8.23269421601446	14	1.6786196418708297	-0.2785648632482515	-0.8423730358138392
Si	9.514661083339332	12.157191829306884	9.543939122854313	14	0.41326301408655325	1.1230330927874794	-0.49195349218340934
Si	5.486858012895385	13.471733371588222	8.22895694118228	14	-0.9779674739667445	-0.4931883940686765	0.24652477719069424
Si	6.797923399983475	14.889890450592313	9.479393612106403	14	0.7530885753558451	0.050385436737877876	0.30521231300733026
Si	5.346538846925592	10.848900838382422	10.994866716544069	14	-0.5029974179755734	-0.09080809747071396	-0.30131194623666563
Si	6.742500756620666	12.395006540462017	12.047570540888751	14	0.39590702473342565	-1.0050916066521787	1.434901226137077
Si	8.28054438984831	13.640041298855783	10.910671952966705	14	-0.4712087860183266	0.14963884385368223	-1.2276184581162068
Si	9.578472195102753	15.04633375426601	12.17264684793603	14	0.07669530036842115	0.35680411236142157	0.2931350599869987
Si	8.166369827726342	10.858921304526346	13.393103720315546	14	-0.5303861173984509	0.446125596736026	0.6189018173657208
Si	9.431739278001752	12.12037396021781	14.995170625013241	14	-0.6762431224367272	0.33912647773274346	-0.0847629146419818
Si	5.537662102644626	13.629319073682236	13.64560641116047	14	0.006750951239112811	-0.6446136418987976	0.2390444033722554
Si	6.887666955888091	15.023028826491542	15.013840679196708	14	0.535319554286751	-0.9042590266487395	-1.0549497096888945
Si	10.886045107020157	-0.182620547476389	-0.1012654599723855	14	-0.4803241257098475	2.1453523906373104	0.5466761264858451
Si	12.294834518977648	1.3180829773843215	1.229889819335849	14	-1.2709454394186823	0.011789546335007003	0.5299487723834936
Si	13.621942443882475	2.770169289471827	-0.0517016885080608	14	1.1750532382879075	-0.3316466181353687	0.7222720783201463
Si	15.121307730593673	4.1354822815475405	1.3183767369781172	14	-0.9014796617976594	-0.46788717505522726	-0.5458896253684117
Si	13.66587582313238	0.097103865726945	2.783894390493064	14	5.549920066891191	7.533584128591945	-2.7415914572691182
Si	15.023926425250364	1.5248734114391318	4.089345705344166	14	-0.3029597676363485	0.4377257956551022	-0.17263352428442658
Si	10.795828271769981	2.674762701397925	2.6741425422554665	14	0.4260339513222608	-0.1925372218992889	-0.538115888432944
Si	12.067529873289432	4.097424094173551	4.002980384768201	14	1.0977568134956357	-0.14325658911747866	-0.3954894772294336
Si	10.762927197264851	0.1920698144101539	5.645488193545117	14	-0.554348047650635	-0.6259101362473803	-0.45693220950714036
Si	12.235886760489292	1.5023192026265872	6.766931762838017	14	0.8444093512273965	0.08552344759568159	0.5070901034241851
Si	13.574516589461886	2.853548054177535	5.344482529769022	14	0.05086134833263728	0.3387097015603475	0.3620239703823862
Si	14.958630195540529	4.285577113999761	6.733247329416099	14	-0.01962061891911402	-0.9921370924966125	0.215076559577835
Si	13.637952341744345	0.1325998166439375	8.150506809661369	14	-0.37856337668583484	-0.0631286060361278	-0.6002006257090916
Si	15.013612199512645	1.431408900679768	9.432130957460144	14	-0.18770945743964684	1.686176634627809	0.11227554134129036
Si	10.86257697947136	2.755513949736903	8.135753550061846	14	-0.19476405621706916	1.0798048419292978	0.028168515666478326
Si	12.358890430402568	4.118493185039683	9.495289270126243	14	-0.5055243002842149	-0.3950842710309783	-0.6877192510332082
Si	10.946249503770863	0.1032075372869244	10.76139311938614	14	-0.05785526902450409	0.05786375367206058	0.381483638108459
Si	12.33137494845036	1.4321596196416906	12.248028823699517	14	-0.3902503359185679	-0.40244123179405	-0.31814805809405927
Si	13.681265561851793	2.8700965112946983	10.931071924758081	14	0.3974126640089044	-1.1134408130590707	-0.3876908005723605
Si	15.0960770454821	4.014991888158963	12.367034099141684	14	0.5895511074730384	0.07283941371979508	-0.035070905008947856
Si	13.569946995780619	-0.0549656839946808	13.658025913987059	14	-0.081189849578572	0.049664498806108355	-0.36035892257705837
Si	14.945639493503784	1.3322487177962523	14.984154640245897	14	0.3143855025685546	-0.20168907128635596	-0.6207131610637651
Si	10.859476183759071	2.8151471472774507	13.497502615955087	14	-0.09286652439002452	0.18856383573753205	0.5788743355205915
Si	12.254050895372332	4.038362095843162	15.003167413955461	14	-0.45906545559126716	0.6440968497294478	-0.7579513068478411
Si	10.98287153313074	5.467110840201334	0.037372748321799	14	-0.8598493528959498	-0.8563917304614147	0.0076780918175582075
Si	12.222847098520246	6.943954558054853	1.3245130484929628	14	0.665858170938117	-0.43813511562206975	0.10271951419789599
Si	13.5851245747934	8.194668668595337	-0.1657946507428629	14	-0.0546640131011363	0.32133057225933853	0.4947968775569611
Si	14.992184069142985	9.395982207445828	1.3013223605605277	14	-0.5606590827694704	0.06789646374181038	0.5212625501699053
Si	13.549302224327747	5.307534100860482	2.5193638762799466	14	-0.4945490230040988	0.9418935807724069	0.8803868279722286
Si	14.892974926327168	6.601300311869485	4.0076642182915005	14	0.199987513785482	1.0965514793215503	-0.09670467041194156
Si	10.749691695566607	8.146182015641598	2.698279788879022	14	0.34946823466197513	-0.10813529044425589	0.2500327932895043
Si	12.11916628188776	9.508067812456359	4.053915034336907	14	0.7363185409051792	-0.6064383843263029	-0.44698871679199964
Si	10.854988189964969	5.471810993702067	5.4047522064294595	14	-0.1401843753704337	0.018396001455127493	0.5623058757270251
Si	12.28447133330763	6.862093551250424	6.772203115548908	14	-0.9149908202550375	-0.027138530875227	-0.015801499076566063
Si	13.559600130088032	8.14009466405905	5.332911665768953	14	0.5472088595081797	-0.27392556080857633	-0.015949337632474577
Si	14.97563561202582	9.35319122661624	6.832782871780576	14	0.25993849075643877	-0.2322985943437829	-0.6253961722938828
Si	13.630575711944584	5.559677752201877	8.14229786101252	14	-0.6465879936741392	-0.93215474804075	-0.47786512058165787
Si	15.025966422429502	6.710676800626121	9.437826629584297	14	0.7735342619721944	0.623923443166502	1.5731603578437838
Si	10.910051793824248	8.294089971117783	8.120706530868528	14	-0.3960903445427522	-0.8329723034317819	-0.3663657959365203
Si	12.233618283626091	9.463253154425066	9.56003062060335	14	0.7229055986710307	0.08516220729820079	-0.12689278930739623
Si	11.00456078313933	5.380337520189542	10.827994947290621	14	-1.1033944761311243	1.1585377432639363	-0.7855693488652757
Si	12.333969824862223	6.648154967079915	12.200423449527166	14	-0.16956748119015	0.21260547025464072	0.4649594574271747
Si	13.582839777952767	8.037523605892018	10.893307496977888	14	0.94416798053861	-0.10950491824829878	-0.7101922541944945
Si	14.831138531833153	9.493624632428066	12.195821215891032	14	0.9044060938730519	-0.10742052316525473	0.37295888130897603
Si	13.675749409479407	5.418167227879468	13.663444146494848	14	0.43029015906923396	-0.1684721903237669	-0.26596361896367376
Si	15.035758408889361	6.890163912435355	14.891440848448458	14	-0.8951953661741534	-0.7020788742462352	0.18242917844365875
Si	11.005311502101252	8.129910998140797	13.433854703965999	14	-0.1421983221677057	0.008749471404463912	0.76713400949875
Si	12.243540829905417	9.624510851441528	14.817511350676515	14	0.016066837145605344	-0.5620919597643889	-0.04049259479754411
Si	10.89337277688762	10.846012202376762	-0.0262914836447241	14	0.17767314782244883	-0.28201502947735824	0.06139439549768792
Si	12.422211942842996	12.039655351833696	1.3439175016609188	14	-0.6267884258247429	-0.6737820604242813	-0.22452177208193103
Si	13.59290920402899	13.282503233251429	-0.2079981123848595	14	0.5180936628628229	1.1773865163659418	1.3618586950969902
Si	14.857674815139374	14.718106368131503	1.4478267979774666	14	0.10677671839308965	0.03672155462448293	-0.9243779257788982
Si	13.682195800565479	10.729585483369029	2.7839433504253632	14	-0.2370093735113582	-0.3071619821715985	-0.44060440517154
Si	15.03207009398948	12.027317448894273	4.150366100966527	14	-0.6578772029138454	1.3981881561601506	-0.993617534939954
Si	10.590751435345647	13.042420045233094	2.4604161177915893	14	-1.384614776954025	-3.0929772222788596	3.4130824057426157
Si	12.262129284201718	15.226473665172568	4.428017877035857	14	-0.9655724323288427	-1.0270542454074156	2.3176827816044914
Si	11.044055128527432	10.962487881316799	5.418917946841391	14	-0.6720501638806298	0.33237835470948285	0.15142396227746105
Si	12.414965872862698	12.237665638029501	6.784312538804269	14	-0.12455385479765749	-0.39307983732339086	0.016034441218571477
Si	13.707850805090313	13.57954314251128	5.393360862181155	14	0.5019049553250425	0.7443964396000204	0.4468704459472729
Si	15.001519096234718	15.072445718158969	6.871526498206754	14	-0.006590771377667585	-0.2774258635914259	-1.165809600440911
Si	13.625239079323961	10.69079289701055	8.124672285384772	14	0.20578844160880005	1.0334719813970374	0.3106178048324096
Si	14.971294498028616	12.244944347964662	9.384574543220092	14	-0.8907884916554196	-0.10728862546233113	0.6048828656076134
Si	10.942887588419646	13.458465229935113	8.071583398794898	14	0.6917175769165703	0.19935116521874532	1.8064218311299625
Si	12.340204056241665	15.052045746367595	9.430009360393843	14	-1.087686822398744	-0.985302323224063	0.2544455813504744
Si	11.001133587878378	10.946086303996532	10.796889070303132	14	-0.3957118778396264	-0.47801887267980286	0.580152689085769
Si	12.18970122435362	12.327898793257111	12.253544976071906	14	-1.4127254427507998	0.0014231067947019617	-0.00407597326403075
Si	13.449456602392042	13.539461277935587	10.885457587832565	14	1.7881101619293356	1.1370759558250643	-1.468218894428216
Si	14.908903224301875	14.962465390237309	12.140300652663624	14	-0.38048476369158146	-0.029782912696999304	0.4438224005902373
Si	13.535789283013141	11.018334844092866	13.444789088846175	14	1.062394602253915	-1.2731033681138826	0.9330417793762011
Si	15.096925684308621	12.034155519438743	14.88776885352601	14	-0.08634774396132107	1.0737743144008904	-0.8651448014133267
Si	10.639548167870617	13.496278617647604	13.57401067016146	14	1.2969154029259018	1.0650412980704755	0.5832130757483412
Si	12.225588854729004	14.825426539731568	15.063714530232263	14	0.28093747923768414	-1.017737588169327	-2.2790681221327835
H	14.56300619860055	-0.7018357335172356	3.8007464884127122	1	0.590811977522039	-0.6668894412820284	0.5026875997844955
H	-5.366212579721194	-2.5037864578200524	1.385029156812641	1	0.718691299940776	1.3909502375734017	-3.932876854774716
H	-3.2649991652321355	-0.9329086619947552	3.150318683809742	1	-2.3220762863755606	-6.220406227405575	1.710991400514686
H	9.585380441550184	4.14506210830077	14.959397234479885	1	0.038552952944024395	-0.040679771264850895	-0.10452674412742806
H	4.11826960134885	12.285809571457145	1.3189805761431421	1	0.018254590662519346	0.029672098057700918	-0.10933779640248914
H	15.048966166625968	6.648154967079915	12.200423449527166	1	-0.059454753644168204	-0.10597479064373548	0.02659654187373979
