223
config_type=divacancy dft_energy=-23028.96145263128 dft_virial="59.23535035529587 -22.64614525056473 -5.500003265446827 -22.64614525056473 62.30053842156926 -6.039760032901136 -5.500003265446828 -6.039760032901136 59.06593764726278" pbc="T T T" Lattice="16.249967316 0.0 0.0 0.0 16.249967316 0.0 0.0 0.0 16.249967316" Properties=species:S:1:pos:R:3:Z:I:1:dft_force:R:3
Si	1.32973482546828	1.238263759446516	1.391679700876872	14	-1.4966836014275753	-0.3233116089085127	-0.45436110418699227
Si	2.6430409339800836	2.6238822225145197	0.13017848816847602	14	0.6296768055413973	1.5807266065799157	-0.7215961347314792
Si	4.17567285135594	4.060915582170348	1.3600735144472518	14	-0.4843805585734452	-0.4971764355307582	0.43055472580667714
Si	2.809326849524712	0.033442432736328	2.71195704536724	14	-0.9812124659913035	-0.7533472285510519	0.46028338818142134
Si	4.111290480849948	1.4860595110482	3.933889587661176	14	-0.1887574399681392	-1.0042536834283424	0.06312732048346772
Si	0.035327428944984	2.774291919991416	2.690555838412068	14	0.48189841349737417	-2.489814940351489	0.9119026656550077
Si	1.4938594953598798	3.8182385702732042	4.047980608186812	14	1.0475135588819622	0.736594677616563	-1.0268755535876655
Si	-0.088058572885404	-0.197307103150872	5.417722853187084	14	1.2216691775159163	-0.1715732004503975	0.5542863411229514
Si	1.504486973984544	1.059124119754932	6.863937444376452	14	-0.821378418211638	0.8018292760204242	-2.1177207217616787
Si	2.8532017612779117	2.614473491438556	5.384881669241448	14	-0.8211930415180554	-0.414386587111458	1.6028522534124499
Si	4.2047765428188955	3.9959482128409802	6.67126158191064	14	-0.052962969821326325	1.1180803726092783	-0.04139942364396034
Si	2.803395611454372	-0.09499730892933599	8.272874610542916	14	1.007611804086988	-0.40368513254793764	-1.0680312364472757
Si	4.019689415089656	1.4356033625320201	9.456115980657456	14	0.7347509379914849	-0.5828513212297964	0.10104778151873571
Si	0.035636178323988	2.473667524645416	7.928862802463196	14	0.523704071781918	1.3380574589273155	0.7610759711434171
Si	1.4868070095447359	3.7993561082520118	9.410063573283912	14	-0.6610779719268979	-0.5434961834258858	0.8480227826443326
Si	-0.1287809909793	-0.019548710681148	10.67184103543668	14	0.18690907235348475	-0.12702982922096012	0.3826198095494324
Si	1.092469052687364	1.311502362139728	12.244805371690846	14	0.16056784123803566	0.06050196484106452	-1.3074332805695636
Si	2.8022906136768837	2.454248813702796	11.05025402432437	14	-1.4671032918298035	1.222882225005962	-0.4707408448500597
Si	3.9698832652661156	4.154141644662239	12.110791891235795	14	0.6768439897500458	-0.01810983743299501	1.3812247745894097
Si	2.3720564790184677	0.102179794483008	13.652068791223764	14	2.1346247107995246	-0.36953339769094273	0.9558364278130381
Si	4.061370581255195	1.580488071121476	14.907281266580867	14	-0.8074049750176973	-1.3254500439899695	-0.30903734639211455
Si	-0.093047312851416	2.813308091517132	13.489666617867659	14	0.2105640126304431	-0.20976362754428104	1.1644021773886621
Si	1.5134569559429758	4.118407966534356	14.76504530266392	14	0.0964971822126056	-2.202208013913341	0.172901433458786
Si	0.219390808733316	5.272691894891784	-0.147159704013696	14	-0.9868239033525268	2.569543630776621	0.07296334099622621
Si	1.3377460593550679	6.851051220294863	1.263044959603416	14	0.34754839031942053	-0.6725353314545417	1.0712469178711848
Si	2.911847893321356	8.200318506476975	0.23594952542831998	14	-1.2798525195792712	-0.5649271176009161	-2.8198528178880413
Si	4.251527698787028	9.521619598908252	1.42520338344978	14	-0.3524738567812282	1.2936809524331556	-2.044551692339841
Si	2.8257068165792396	5.39637039613386	2.724973269187356	14	-0.6864946335692217	0.08985601717066312	0.189986942532234
Si	4.271758908095448	6.67979281475154	4.125687951891924	14	-1.4327412405576205	0.9680370938887367	0.5290108331627036
Si	-0.054469890443232	8.154087349462955	2.735860747289076	14	-0.27593770783212423	0.026136571131965294	-0.37358623100709215
Si	1.429785874232892	9.554379533017308	3.969720765592956	14	0.28755216189482913	-1.5611399262510277	0.7740204579882346
Si	0.208422080795016	5.337415514711412	4.98979621388754	14	-1.5680765112942552	0.8275308161322203	2.3945542026873428
Si	1.2990223872410398	6.549305577204059	6.691444041317111	14	0.9358070031480203	0.4885686320294344	0.011947412201664094
Si	2.761698195321516	8.1924210223614	5.746085942741495	14	-0.31136393959631653	-0.8161786148121706	-2.3121117105967945
Si	4.099964253630695	9.51492461237406	7.051072067987508	14	-0.5422021461182553	-0.6238589084229663	1.67647199759691
Si	2.726712015690168	5.192319556546847	8.094774968759555	14	0.6586549622731903	0.9740776487278926	-0.13066382948045738
Si	4.130449192315512	6.6218616812699995	9.597929445424189	14	-1.1364210953000227	0.4256883947672329	-1.6377125848956775
Si	0.135703477055916	8.10288370245024	7.974947709771372	14	-1.2630040664163409	-0.04213424554445866	0.8991582108040977
Si	1.4120246599565038	9.438923515237127	9.528590834886815	14	-0.9955234953137796	0.5132586993082844	-0.3302885603052665
Si	0.306198134135388	5.40742037390874	10.794609538509059	14	-0.4625367048839991	-0.12011895523093406	-0.7463844182335589
Si	1.6018730281093319	6.856689958953516	12.071678219906184	14	-0.5360636321664017	-0.01842016984513688	0.6474423719720244
Si	2.878860459669876	8.23109594457348	10.722280933985544	14	0.2957035942018266	-1.0262145224098553	0.7752239923885959
Si	4.022906908618224	9.423908545437143	12.342110175979055	14	-0.5286346804543659	-0.1434314242792487	0.09118013641053939
Si	2.798829370638576	5.6413549033898756	13.694367456147312	14	-0.24458230712132237	-1.1092635382454263	-2.2931418384342104
Si	4.268687664272724	6.805340062234956	14.833018915946749	14	0.27908499785451746	1.5509850886785708	1.6403232852377558
Si	0.138254721924528	8.039281330375415	13.514984066945988	14	-0.5903283526113191	-1.3612076912299287	0.38589719750102514
Si	1.229050027978344	9.465979710818267	14.876308828876573	14	1.4386401274936362	-0.23154551759551154	1.4705547436115702
Si	0.143779710811968	10.922919280436195	0.07821109269190799	14	0.6479622494677585	0.4396636377348978	-0.37853638007997326
Si	1.6483316846657758	12.185232991510391	1.3935321971508958	14	-0.8681195702687381	0.29485924321469	0.14123878566222645
Si	2.8383167912164557	13.83619717088136	0.02348120277162	14	1.814288642078019	-1.005564175810022	-0.16398304043478834
Si	4.255801440191136	14.948816183040563	1.5528306267496441	14	0.558725097347655	-0.16779958917201618	-0.6130510100991918
Si	3.0110376938182197	10.750994626232915	2.7284020122910317	14	-1.402935702133804	1.8981915219904115	1.5941308070559754
Si	4.097461758664032	12.117941876854834	4.430488588838136	14	-0.6483777400874944	-0.39222905857295387	-0.7170583909519499
Si	-0.235315776702996	13.439161719449531	2.533971153355092	14	2.2309858815406947	-0.587758789954363	0.6299187465520233
Si	1.293806147732604	14.742490348029312	3.9550795450412397	14	-0.8865191712713139	1.1674972739730562	-0.748209903010864
Si	-0.07591984730035199	10.647124835149045	5.337773013992364	14	0.013566437221761337	0.7634979523549966	1.318951061072231
Si	1.4441995952421838	11.880611104204656	6.917562336519252	14	-0.9714828892387992	-0.09634677255137696	-0.6919394633056992
Si	2.34795777748884	13.361308126038574	5.404804129170864	14	1.3925872603307399	-0.1793693060021505	0.33933705125846364
Si	3.8609434843796517	14.660639262658618	6.68986779448746	14	0.7571306100296498	0.6418751576223078	0.4321603810791096
Si	2.8790879592123	10.966355443071862	8.54195781932856	14	-0.4812607793779775	-0.8687183806978005	-1.0940145697021604
Si	4.165256622306384	12.219309172972045	9.955948725330298	14	-0.4604319980689259	1.8889221730902137	-1.569585750117182
Si	0.069696109818324	13.36990435874874	8.016466376263752	14	0.1161347704268326	0.2822034914973251	2.0684187488057115
Si	1.562239357825608	14.843386395094354	9.527550836978593	14	-2.388134924034529	-1.083455297262844	0.6298994632621221
Si	0.003347493267096	10.73692215453726	11.031322812401232	14	-0.2866180793320194	-0.18588782932032194	-1.364510018903127
Si	1.3016548819462321	12.196234219383323	12.20396920382574	14	0.548586714849247	0.5420733337417158	1.5400668899365617
Si	2.781279405937296	13.724332395878015	11.190101243045868	14	0.1027231137453442	-0.3513446273246192	-0.642326386605994
Si	4.1574241380600725	15.23930059878138	12.364226381496131	14	-0.2598148205905396	-0.4623137900527423	-0.3158592601380634
Si	2.670503378744124	10.767212093614285	13.646170053088056	14	-0.288887336887582	0.8370043107948381	-0.31591865267095887
Si	4.128027947185428	12.125530611591406	14.909085012952943	14	0.12118313572294337	1.11474487767745	-0.11323610628889766
Si	-0.05414489109691199	13.593715158592007	13.704702435360288	14	-0.7013533083248894	-0.7695343934256402	-0.7296580925733356
Si	1.2144738072958918	14.873107585315319	15.137185804167636	14	0.7156049451144703	0.2401625770759878	-1.9038042449042947
Si	5.475003987975984	0.234015779317716	-0.038171173225283996	14	-0.6203269810446788	-1.50770721548771	0.3418022270394216
Si	6.8288700149085235	1.516625699569596	1.324567335861792	14	0.34116125048310864	-0.6462288102609146	0.16979682378470723
Si	8.024103860902272	2.881460454440436	-0.058954881422448	14	1.4663239898072669	-0.13160228292231144	0.29414884681473313
Si	9.574496992554515	4.158334136229768	1.224061288012332	14	0.39179711287916896	-0.1529961931807316	0.36014423528282596
Si	8.207468492096016	0.043273662962508	2.5659023391310316	14	-1.7290917248579964	-0.5609066802118006	0.7378408923652389
Si	9.315830012818427	1.290296154792348	4.079034295727688	14	0.9960618847678188	1.242221565003052	-0.9201893381018449
Si	5.590378755919584	2.7465044758810557	2.799804368677536	14	-0.16512126876001793	1.102762498443432	-0.4075492467335883
Si	6.9456585300086155	4.070990561906267	4.218296515625807	14	-0.020787643623929236	0.26608523224531677	-1.611273137556999
Si	5.182569576157247	0.0247812001569	5.339024261475696	14	0.36763000842243715	-1.0961614426444837	0.48028581624057737
Si	6.582959259515496	1.336901061054636	6.672285329851547	14	0.8323529241601582	-0.4374409171856298	0.3332448172023727
Si	8.143687370380716	2.627912214408888	5.461565265005651	14	0.001876135552112053	0.4371344414314681	1.3942469088148957
Si	9.501453389469095	4.010556933458064	6.992393436009432	14	0.7522817625063826	-0.2236586520259573	-2.213295391385415
Si	8.226253454313312	0.08436983030467199	7.937556534977256	14	-0.2479946781022229	0.631304572319583	-0.20050199196004362
Si	9.398217347110547	1.536548159499012	9.373159897509275	14	-1.2497477044961893	0.17534475484452272	-0.17954748360083675
Si	5.38987040920746	2.6845758504397796	8.123797410385931	14	1.1827058761627962	1.075432163111322	0.6009300482884177
Si	6.910916099887007	4.194474063540552	9.5858557197084	14	0.021188736053872333	-0.8565364836909389	-1.714480133323595
Si	5.532610122111204	0.13552472741544	10.638886101719832	14	-0.8993772689773742	0.018135291375664477	1.2177248448442772
Si	6.676721570928816	1.532826916983648	12.135459341621484	14	-0.3417801155336683	-1.3997213062625549	0.14147764134646817
Si	8.084228739971472	2.769595679437092	10.959254207354773	14	0.2046874943107127	-0.34358580280000833	-1.9796922182021892
Si	9.346981200163201	4.0678543182142795	12.16610677997946	14	1.8463541820782459	1.9882241740965685	0.8883094319057327
Si	7.97865270231942	0.12440974977129599	13.43238548307876	14	0.8078058103371084	-0.8968131056415906	-0.7293541879244941
Si	9.2641063668516	1.4845645140551278	14.764216554330803	14	1.7225603460132242	0.4764037043176857	-0.020332043761198994
Si	5.434054070339664	2.812836842464968	13.510027826914607	14	-0.7038557651329896	1.4792296529617501	0.34410645162733833
Si	6.824108774484936	4.24424771342946	14.882256316914228	14	-1.0231482222050468	0.19906834363352904	-0.6158601997719855
Si	5.444177799977532	5.480025227876628	0.0710936070075	14	0.76984446872725	0.41755341753428443	-0.20582803663073035
Si	6.846728728988808	6.954319762588043	1.4523733288021319	14	-0.40122946985666424	-1.7335906449471916	-0.6790901073577271
Si	8.207273492488223	8.117931172184855	0.08129858648194799	14	-0.44282404039442386	1.2915939862447914	-0.1530471010660705
Si	9.598303194672456	9.46536221206026	1.413568406851524	14	-1.0927493287741155	1.0375163300656303	0.23964887023302223
Si	8.105207447776428	5.393331652245768	2.591447287751784	14	0.31380366143460503	0.22963030124253322	1.4543269552729237
Si	9.107960430912154	6.934608552233736	4.278681394172064	14	1.4843970604341838	-1.4701227979177858	-1.3008725911241419
Si	5.283628122895452	8.096156215981416	2.5795848116111038	14	1.6146716245691706	-1.3723706591984157	2.821192363759838
Si	6.469583237551764	9.490045912413263	4.0817155403348275	14	1.1033839345993117	0.6072475111705535	0.3899235484323771
Si	5.7369697110772195	5.502417682838075	5.486265215325972	14	-1.0339412081179644	-0.3784013970506655	0.6300097636803565
Si	6.935014801416636	6.756817659829379	7.056337057397892	14	0.5518702734536081	0.8412849440423525	-0.7363784476591386
Si	7.992335174799492	8.453411747423676	5.5909962546775915	14	-0.6055510958803199	-1.1406770459364635	0.07659631281359545
Si	9.637823115184968	9.557515776709296	6.79955507387046	14	-0.6303031267973854	-1.0349555091667628	0.5152173673411732
Si	8.609687683101647	5.598064990460052	8.347981959477469	14	-1.1954387610397657	0.33602521049558093	1.098196729615913
Si	8.488609176630131	8.061446285794439	10.726895924703287	14	-0.2370487114227565	-1.0280032403810824	-0.5725846405759132
Si	5.443934050467791	8.02902760099902	8.303457049031627	14	0.4450259349905986	0.3591217066970031	0.637309131684257
Si	6.800302572366996	9.35359493686081	9.873285141593808	14	-0.44203034018209403	0.9019154641494245	-2.4645281195278326
Si	5.506138925353439	5.392941653030184	10.843635689901431	14	0.048120550061359436	0.17876561047297976	1.06011865982452
Si	6.992620935551855	6.835207502161763	12.023123317565977	14	-1.2991553498808148	0.1613512570290848	0.3419924888331125
Si	9.728335433135086	9.430392282396227	12.015664582567931	14	-0.2071035619800558	0.7441776385372758	2.113814184338246
Si	8.14350862074024	5.617402451566092	13.52882903909922	14	0.17001408218425973	-1.3522628158211334	-0.18373427150416588
Si	9.413394816583692	6.971138478760103	14.825641430785282	14	0.6137740049152174	-0.7499456562124961	0.17124229919569445
Si	5.594668747291007	8.194046019093	13.440932965886976	14	0.020444401063689468	-1.0758926480741604	0.21524033898672848
Si	6.787091348939088	9.446902249189284	14.964009902481024	14	1.9798061181678717	-0.3347723108730727	-0.91180470654231
Si	5.571122544650124	10.776799574330724	-0.0036887425807319994	14	-0.9492250875928093	1.3762419724789627	0.46090508144783315
Si	6.8395462434351355	12.183591744811476	1.3697909949022198	14	-0.24925426259856343	0.19378137976370854	0.7458411436794116
Si	8.077647503208492	13.654327536680688	0.031898685841308	14	0.0513547434435737	0.7774688244436172	0.6060205797117788
Si	9.609060673035646	14.99928858152406	1.35410977644228	14	-0.11440493076743699	-0.6008565146762614	-0.529364874365288
Si	8.107742442677724	10.880100616558535	2.860286747027688	14	0.06404469086169656	-0.8392956798561539	-0.6481867069622074
Si	9.55977452216622	12.228392904701687	4.090068023535252	14	-1.1303563720708572	2.4194453304022283	-0.6563149993213234
Si	5.446631545042248	13.334089430784275	2.997420221207412	14	0.15930311453105483	0.7981870482239024	-1.2728966512461426
Si	6.706150261738093	14.939049952683648	4.1187329658806755	14	0.37660625131613806	0.7919186934533814	-0.7618827839928795
Si	5.401294136230608	10.752262123683565	5.796330841682568	14	1.4738928096487187	1.5318511799965606	-1.55097608980995
Si	6.981668457580872	12.276622807695576	6.950582270105365	14	-0.6066240181304177	-0.3365983098714419	-1.3600949168473686
Si	8.116436175191783	13.892389557860087	5.591565003533652	14	0.8344267777113895	-1.6816556030328602	-0.7362560630458996
Si	9.77297409335214	15.070284688727664	6.70863650673744	14	-0.879038540342343	-1.5252331549024996	1.565093000680755
Si	8.171231064981336	10.74139089554916	8.0624212838334	14	-0.09994194912054001	-0.21913504932568875	2.593693508827708
Si	9.455465981964815	12.164595533019073	9.546953297953895	14	-0.24391921905925615	-1.019731480345102	-0.47940906932640687
Si	5.382574173882575	13.343969410912404	8.138178631460592	14	-0.49999051030366015	1.6796534833200611	0.96851094859924
Si	6.8348500028808115	15.106457115973079	9.277740089429724	14	-0.3978718634190828	-2.283441572282355	0.05632546135901598
Si	5.315949307886975	10.778522070866218	11.139563844693107	14	1.7481235606587966	-0.9178149223386882	-0.334690035502828
Si	6.861987448298532	11.996489621135051	12.243180374959246	14	0.7860732855080248	1.0879727293103443	1.086739370088269
Si	7.93104029808354	13.425024247884611	10.688318502295104	14	-0.04868516478966395	0.6845958722902923	0.294425754857713
Si	9.302716289194416	14.909085012952943	11.890247334823044	14	0.1508349220486151	0.8280231828010288	1.331174609985279
Si	8.476892950195296	10.748362131527724	13.734699875025624	14	-0.9024116874762131	0.6223298720890742	-0.5854005721547234
Si	9.633663123552072	12.422255014781568	15.180085717881875	14	-1.1129600163642033	-1.186889835850273	-1.2504537300171021
Si	5.574112538636268	13.652816289720299	13.458109181339987	14	-1.1262017229840298	-1.1361925240370612	0.4548668406034654
Si	6.773295126687803	15.0145635508011	14.835033911893932	14	0.014855332318751571	0.058908393763636734	0.9424060020627125
Si	10.7761658256054	0.329159337952896	0.03875617204866	14	-1.9000085221201604	-2.432697321443336	-2.287935093050378
Si	12.024715814362944	1.3675159994779797	1.390087204079904	14	3.285614974396166	1.0296261220591598	1.5911118151890578
Si	13.479217888883472	2.74632572624058	0.115976016734292	14	1.684995983064797	-0.34686293364106907	0.1921651829594635
Si	15.278430520078306	4.215127771999188	1.383879716565192	14	-3.219621899922861	-0.6912223820319099	-0.3792573180117428
Si	13.800122243439839	0.041047417440216	2.499586222514436	14	-1.6484019552641933	-0.8306642221858848	-0.025795899677045677
Si	14.942836195068274	1.233307519415136	4.095755512095852	14	0.5233263764103883	1.304381121444016	-0.7490406271398039
Si	10.880360616035592	2.698160823115956	2.798309371684464	14	-1.1226723667110625	1.2606180806792435	0.6405950042834061
Si	12.247584116101883	4.186917828738612	4.220457761278835	14	0.33985384342781333	-1.5378534253664464	-1.554548126431232
Si	10.808568260433503	0.18016338763249198	5.311204317430704	14	1.2072990127710765	1.078510033290071	1.075016158270522
Si	12.297520265663952	1.447742088117072	6.905114861555195	14	-0.7758865662295981	-0.5227561052503793	-1.5499358205974183
Si	13.674623745858371	2.651555916853668	5.438181562037928	14	-0.14760869909289331	1.1649099706893913	0.5029236272528851
Si	15.107464613946672	4.1647366233522725	6.808850055175212	14	0.9037196087525724	-1.4620186739486787	-2.24535553206447
Si	13.386528075313008	-0.059344880638032	8.202837251410955	14	0.7451844833806458	-0.9438957004852063	0.5945282531517809
Si	14.765906550931666	1.49239699830144	9.33666247091754	14	0.8013633917364134	-1.7696030887243777	-0.25419387013963196
Si	10.968581688594156	2.720504528175456	8.239805927054856	14	-0.5429693639457874	0.419004292266444	-0.31964675538517356
Si	12.082516948105956	4.098908005755156	9.631388128127831	14	0.5415593697882182	0.43964281178180453	0.5331798804393236
Si	10.64397234148974	0.14698095437321998	10.537632555373836	14	1.8038766939735476	-1.6627705773458408	2.0710441044481147
Si	12.255709099759883	1.416168401622084	12.036204541255355	14	-0.9625611537778854	-1.508016776568256	-0.09666327561628718
Si	13.693359958173719	2.72463201987372	10.839833197549487	14	-0.4153782624334391	2.0855127425267157	0.8997503363593279
Si	15.069764689773551	4.321987557069204	12.197615466605184	14	-1.5700092111634105	-0.2335995736357778	-0.39553370024094014
Si	13.291368266710512	-0.077284844554896	13.574572697093759	14	0.07296334099622621	-0.737078816748347	-0.22249419842646226
Si	14.712980407383455	1.2792786769521	14.761860309069984	14	-0.1994234132782415	1.6923364887538195	0.3302577070414247
Si	10.954232967454129	2.7725044235866556	13.317254464644899	14	-1.0091668085846133	0.3179606245162205	1.5010855908462006
Si	12.272251566487572	4.011613181333604	14.936189958436032	14	-0.6440428565177247	1.2163433899557616	-1.8502015840793158
Si	10.853093170879344	5.562071312855111	-0.277695691463124	14	0.5303015280334179	-0.4210254381586124	1.349317871787436
Si	12.304767751086887	6.858071206175376	1.2277175306584318	14	-0.8170054822831302	-0.45645706924397694	-0.054901069011653945
Si	13.71424116617478	8.27188336253664	-0.08969981958432	14	-0.13054401597253848	-0.2561522810619887	1.1387325189828357
Si	14.940106200559187	9.751751636037444	1.3053436245269638	14	-0.40774876450643166	-1.5678605384473627	1.4690573318731162
Si	13.557087732261744	5.372255444636916	2.574124822592928	14	-0.13636474130682172	-0.07930934314741571	0.0017833186500547074
Si	14.754027824823671	6.640971642833615	4.064003075960388	14	1.2134501251389989	1.0432308687501912	-0.4243339364845789
Si	10.650342328677612	7.9010428584182035	2.675508368677452	14	0.24142113313020028	-0.765988839189156	-0.21779653189601966
Si	11.945773473141815	9.200845244090411	3.937724579947752	14	1.6423086927659742	1.6051359091578055	1.4635322836506501
Si	10.777920822075528	5.467041503991144	5.364211710815496	14	-1.0582576937937966	0.4889738382278897	1.5585832191206725
Si	12.258780343582607	6.513458149304964	6.9769884669938635	14	-1.1754538164967867	0.6623529830551592	-0.5063030880856878
Si	13.487732871757055	7.915505329329444	5.550533836060752	14	-0.653424562720413	1.024997618261829	-0.2360886606962132
Si	14.684754214155564	9.48315592627128	6.92077983004782	14	2.093673687923398	-1.4952977756600154	-1.9166376599992823
Si	13.616871362017308	5.063619815404127	8.176869803639988	14	-0.17299270769765127	1.7929777785214398	1.1618171880997852
Si	14.99514483985848	6.68913654595824	9.461137220558099	14	0.11638262497969488	0.1620757945083025	-0.30492692031679386
Si	10.806325764943896	8.06721502419162	8.249360907836664	14	1.799282128766443	0.6511121105954718	-1.595685554443069
Si	12.258114094922652	9.525145841815824	9.475810941044447	14	-1.086773051567963	-0.6547458537444372	-0.33809726427308817
Si	10.456545218466996	5.870300692905	10.514801351294857	14	-1.8598337159401865	-0.4045078862503851	-1.7098387739996634
Si	11.944294726116059	6.849377473661316	11.95705095045912	14	1.1809420979131746	1.2357336378381902	1.3550370384615735
Si	13.576262693694623	8.19916475879754	10.708614711472789	14	1.0134227592210545	-1.046874896320437	1.656241769606389
Si	14.969242391956774	9.437656017786479	12.473052412611382	14	-0.6147484538315535	-0.6112044422582614	-2.043992734043241
Si	13.446652954382207	5.681898571843296	13.447839201996276	14	-0.7644901418980417	-2.196810749625286	-0.9490250555989017
Si	14.811243959743308	6.675454073478168	14.856012619698888	14	2.1800998505969837	1.0210221752158164	0.6200685849600039
Si	10.862518151922623	8.31811451955066	13.748187347897904	14	0.5486774748670483	-0.3492214085512409	-1.7367633889122542
Si	12.244984121331322	9.650644339397292	15.07520842882441	14	-0.7429874738845793	-1.2965112251695745	-0.015280593138704062
Si	10.90405306838232	10.950576724808029	0.10871228134403998	14	0.6471767767924531	0.6056349139137566	1.065675332642424
Si	12.701071953989496	12.622682111657111	1.112424012551412	14	-0.4565928236048808	-0.10274548236162949	-0.17126441070144774
Si	14.694504194545164	14.528169529098587	1.0727740923003721	14	-0.20439515963581187	2.383080902306714	0.3705906361985876
Si	15.933645452226743	16.138232540735185	-0.185103377696556	14	0.4624454306451338	0.7432587254958548	2.062372023313787
Si	13.432921732000187	10.94175299255544	2.731164506734752	14	0.5399334027837567	-0.34373209869272475	0.20483353309289706
Si	14.899513782203819	12.284422792007256	4.203476545433616	14	-0.7256389407368801	-0.7951135489241974	-0.31209027684925844
Si	11.08524020395572	13.675663743766595	2.636540947053684	14	-0.014092485370263634	0.31940995658518795	0.8996222953143844
Si	12.380915097929664	15.31291295072286	4.226583998956968	14	0.7328282654330782	-2.6004876546361992	-1.494873543282191
Si	10.701594725592274	10.825533226311407	5.3167455562854595	14	2.9484137403271493	-0.5884871840915611	0.6612175829457818
Si	12.301517757623687	12.057963247491479	6.885533650939416	14	-2.864865158727874	0.2749293203255621	-0.969433461188109
Si	13.429005489877031	13.48238663251009	5.603362479805067	14	0.7058190611554546	1.7102444944191832	-1.272013476568672
Si	14.850422630942182	14.782351517855458	6.938264794879836	14	-0.10590099992104722	0.5359021667522965	-0.4930575248078809
Si	13.54873524906132	10.858244410518516	8.235597185520012	14	-0.10564183250477628	-0.4748774961996459	-0.10278482027302774
Si	14.859928861822043	12.035278293118344	9.549927041972724	14	1.9687354528803784	1.2790161390186272	0.7585683721246766
Si	10.784177059492187	13.40609303596147	8.204429748207923	14	0.996690005797531	0.9624814495129609	-1.0003466317838454
Si	12.138140586228623	14.714101655128259	9.645298100150328	14	-0.03449806274361887	0.6262875745083781	-0.4329569095072915
Si	10.990649144209284	10.86342815009232	10.809689508178309	14	-0.21046759618093755	1.1548104118813176	0.43936153285978047
Si	12.201629208532236	12.125546861558723	12.444582469873751	14	-0.9574050591688603	1.08456755742434	-0.49522728058755383
Si	13.618951357833756	13.358415631856326	11.023019079102754	14	-1.2177839802666406	0.01933342645485348	-0.6887116976867853
Si	14.766556549624307	14.894785041714863	12.18536299124892	14	1.1987912252667066	0.6753977430074626	0.9084810386949546
Si	13.510482825999457	10.68646600602108	13.629400086817943	14	1.108023751260051	1.9449329311580434	0.5656043467422431
Si	14.810772710691143	12.172411767298067	15.1697507386689	14	2.7398973559736723	-2.345992708063578	-4.249977701671879
Si	10.605736168395191	13.826950939478555	13.686794971378054	14	0.9873116420317588	-0.8208958217430463	-1.6474521889589306
Si	12.089504434051836	14.624353085641992	15.349784126562863	14	1.561809184965862	0.49273587953233033	0.36972828747420994
H	13.992560856382838	12.907196289406029	15.979517484963079	1	-0.7388130272867869	-0.008145261654229114	0.007208093765035139
H	11.294372408322445	15.49322583805466	14.482820745309827	1	-1.7214532280623687	1.3785701083463568	-1.479658256218619
H	11.841794807276926	11.913395413264686	1.9386503507399686	1	-2.987906175155156	-2.515524450889778	2.7874563766331115
H	11.288897794333684	5.159931746689328	11.404396062028885	1	2.04724029717312	-1.9034563743544788	2.675856264659424
H	13.571868702532377	13.64626592789522	0.2308031607793428	1	0.3821755225501109	3.2372738234983385	0.9001118337673405
H	7.6941238995999175	8.901988845188392	11.782605926325129	1	-0.2806749693844971	0.46389244871931323	0.5452435066014585
H	9.897699092489367	7.336219994461749	9.130144886291959	1	-0.6079725628708352	-0.0027523682452185185	0.3106041779742128
H	7.66152484016729	4.732611231170671	7.462262865948303	1	-0.5569039834493941	-0.5769251805773871	-0.598070464951349
H	3.9294679715544922	14.873107585315319	15.137185804167636	1	-0.44374655298329296	-0.4242272356137927	0.3937452393802452
