229
config_type=divacancy dft_energy=-23116.473472238504 dft_virial="30.131580525700624 -6.5771084373303506 -13.06916805866074 -6.5771084373303506 23.99591594284626 5.017880143997725 -13.06916805866074 5.017880143997725 13.478212364184365" pbc="T T T" Lattice="16.3999889955 0.0 0.0 0.0 16.3999889955 0.0 0.0 0.0 16.3999889955" Properties=species:S:1:pos:R:3:Z:I:1:dft_force:R:3
Si	1.0339701061992885	1.1400616350111779	1.540450966347315	14	1.589242878731842	-0.405548669683981	-0.6065540840657095
Si	2.426083172082306	2.7816513334937416	0.3623249568775815	14	-4.225438815385854	1.783341790002589	5.364582454109382
Si	4.214993971711446	3.9278465643892364	1.346603096420505	14	0.343128917384618	1.5236591242255049	2.243028424639204
Si	2.6654738114496195	0.0471499683620625	2.9200016406597795	14	0.6084289340651615	-0.04462076149957387	-1.2268337567724978
Si	4.141013621352745	1.3911946664992694	4.211566374011387	14	-0.6683228324980109	-0.013845916370061436	0.28132880146741074
Si	-0.1063211286578265	2.5779634701696312	2.7758457373893344	14	-0.7258430864992998	2.8271462723497054	0.40275182131672393
Si	1.393966264639509	4.140275621847948	4.110739241667052	14	-0.34176134646483125	-0.6155097581168494	-1.0071747161825626
Si	0.059072760361791	0.2211538516043175	5.393054381225197	14	-0.4158642013389471	-1.2781555900679735	-0.3020007453519333
Si	1.3687922815314164	1.24836716233746	6.95556333277146	14	0.09370110517694458	0.6474053480554144	0.6580350687805026
Si	2.581227067979736	2.7717457401404593	5.59651264470337	14	0.570845287826833	-1.0125323854486874	-0.6077043965859439
Si	4.065655671918423	3.9670753380664725	6.827741818540532	14	0.3977512785795679	1.265144768705896	0.607708253243924
Si	2.7316477670464616	-0.2431954368142695	8.204094494998873	14	0.15338751541045814	0.7763226256918953	0.7105234125597296
Si	4.311967106641838	1.202151993348141	9.589975565063602	14	-2.2859867094387702	-0.7937338938094058	0.017289140614803744
Si	0.0238291840104615	2.5393086961072378	8.514218286903779	14	0.02261261418017034	0.557546502668899	-1.5435895613356967
Si	1.3683494818285378	4.2219311670565425	9.504466022441065	14	0.9164908030988118	-0.9431454519527871	-0.8905118407229716
Si	-0.1804162789394955	-0.19963706604222148	10.891839491504383	14	1.8248620555965962	-0.008711161935193707	0.021782404272294525
Si	1.4584018214028285	1.11880724927301	12.001741546752836	14	0.5150309622054625	-1.2089296077651144	0.07302530463444179
Si	2.7545913516511664	2.6444654255463838	10.736859595496908	14	-0.3755610970034979	-0.5499501720005215	-0.5584808423422408
Si	3.855342213040131	3.92582936574279	12.236851788992324	14	0.5770210828058286	0.8718417594407163	0.278693418514259
Si	2.7110001809011277	-0.2846546089948935	13.570154494337478	14	-1.5591012968426823	0.757672084810073	0.11953197188634426
Si	3.797876651599899	1.3939826646285045	14.710068529447698	14	1.1058750785440032	-1.3837058912233524	0.37029778730262275
Si	0.3348057753431325	2.3597780165734994	13.474952558218602	14	-1.5760780481610879	0.026522236929987508	1.6640718137483677
Si	1.2173875831249605	4.1868679905841635	14.699834936314506	14	-0.6367018366076378	-0.451613878152414	0.22413122118380052
Si	0.051627165357834	5.367339198480253	-0.1201627193700285	14	-0.38665490223887283	0.08613048556176857	1.592106061616359
Si	1.310490320652414	6.719961090862107	1.4267990426084998	14	0.6627363348583933	0.16470397836655787	-0.859871207291171
Si	2.597331857173317	8.140741337509258	-0.0809667456707835	14	0.8883536549172394	-0.9554397062621391	0.47452499766025363
Si	4.100751648368792	9.516159214594857	1.317870315700389	14	-0.3151308660008655	-0.5634356194046982	-0.195143551362323
Si	2.886824462921883	5.461147135534513	2.6955513912673665	14	-0.8609443866518008	-0.8329867016215747	-0.18493857723612325
Si	4.2816107270111665	6.7380338787351475	4.047648484001364	14	0.13406771581380145	0.18517820425196108	-0.5470386523359859
Si	0.028437580918197	8.243290468698119	2.6688194092047013	14	-1.2955025805524805	-0.4756033192315236	-0.27988101206163535
Si	1.4208786465811243	9.708186685743167	3.762879075083502	14	-0.5069155253729472	-0.4078986599465963	2.162079744739662
Si	-0.1032051307486815	5.469806329724138	5.3329812215346815	14	0.32461310242157165	-1.2776701653835296	0.5582124189468174
Si	1.313114318891694	6.822526622039963	6.565620794425456	14	0.5346639224301132	0.37765397673409845	-0.34338654213769687
Si	2.749458155095575	8.133508942362242	5.0390934187353205	14	-0.602930882448557	0.8905650626030986	1.5218482947485248
Si	4.106475244528222	9.437455667405453	6.678928318395366	14	0.6692623143819931	-0.3546623816297383	-0.8656420531822433
Si	2.71190218029588	5.592232247575545	7.991829437430118	14	-0.5884663581384678	-1.5360320543576536	-0.18970669205233787
Si	3.9660913387267422	6.6640535283764475	9.526688007529968	14	-0.01864719844490596	-0.10444524008877937	1.5370065032739897
Si	-0.1275427144180035	7.925852281701221	8.005326628373416	14	0.16606357885985218	2.0001425328081153	0.5274720266285949
Si	1.388160668535102	9.31599734890478	9.503055623387453	14	-1.455735406767301	0.8333993640254583	-1.4904229599730145
Si	-0.126804714913206	5.268529264782366	10.838047527599144	14	1.1521570311909248	1.7942561320866175	-0.4879284268047175
Si	1.150393628078343	6.709251898048045	12.271340965849861	14	-0.5145406524209102	-0.20876012513782724	-0.8722860464400379
Si	2.4439427600984054	7.970296251879026	10.911125878563091	14	1.4010757645452088	-0.9977989235221109	-0.49128551902123485
Si	3.7644534740270696	9.45397045632392	12.051974713046054	14	0.43500068112627727	0.9579516761599237	0.807591380153408
Si	2.587491863776017	5.485566719148813	13.448040176276987	14	1.4372203631358504	-0.6700796687632683	0.4173844959147507
Si	4.064966872380612	6.587531179723444	14.845040438880662	14	-0.6226466322645163	2.2068912822539906	0.22086334632189228
Si	-0.159309493102287	8.0625953899457	13.52787532270708	14	-0.2946435274783295	0.974971364937176	0.5626077234916106
Si	1.123792845927642	9.378776506779552	15.038740708906513	14	0.8408841087229414	0.46977590902340804	-0.9370012815692292
Si	0.1302979125692475	10.91816147384216	0.0369819751848525	14	-0.2807238203855799	-0.2972886806316979	0.8598560377697823
Si	1.6014425254215794	12.330971325837499	1.422141445733778	14	-1.508730001184065	-0.03517940565345811	-0.047463118430997576
Si	2.8132377122990744	13.712719598675362	0.07155315198736649	14	-0.0037900663524302832	-0.7973429543472977	-1.0117908786743566
Si	4.01781690401855	15.113344258847041	1.38120707320101	14	0.7492637990815928	1.295477640830875	0.09673166701780311
Si	2.9418956259687716	11.04801658670853	2.8112697136196143	14	0.445865400877627	-0.42210144573509434	-1.5409076413762504
Si	4.230327961422238	12.444229649840421	4.062687273910237	14	0.4226475485050938	0.09355120973677994	1.1837322614065993
Si	0.05674396192443	13.81782712814752	2.6842517988494667	14	0.3770875622320698	-0.23470746291822964	-0.5210635466181259
Si	1.4215346461409446	15.033230312604024	4.208450376102241	14	-0.13633028849553172	-0.7354875596657072	0.838567285718956
Si	0.019089587190762	11.056659380909158	5.340869616241516	14	-0.23950463122456192	-0.924323418346111	-0.006602341351608252
Si	1.2772967429255218	12.208250208184174	7.054061666678433	14	1.0130604904814458	-1.1553428877931202	-1.199091787478632
Si	2.8021513197381163	13.426982590406764	5.678430589735893	14	-0.7357829796669924	1.1879499025737703	-0.7726845116638856
Si	4.1764211975940295	14.946359570894861	6.866412992591922	14	-0.5297317710944731	-0.35023133872099504	-0.5030295567920752
Si	2.8688664749718105	10.66920964089047	8.148777332117053	14	-1.6873017503159056	0.6564350699397744	0.44153308841317745
Si	3.916743771839283	12.293054551279903	9.505040022055907	14	-0.36180876886708985	0.35475648408445565	-0.10386751272334209
Si	-0.15980149277215197	13.552754106013253	8.190876103868503	14	0.18036843752956006	0.38031995584056	0.2911190563054706
Si	1.270080747767502	14.767796490711858	9.59697836036468	14	-0.6507089612812726	1.2819924505372307	-0.6046884900454101
Si	-0.149010300013113	10.762787978098793	10.718278407965006	14	1.2053668271229854	0.14219755083610966	0.5198625833230847
Si	1.1610864209034089	12.137484255668591	12.444984049334215	14	-1.1757314958713625	-0.4122088609052925	-1.7237026881069664
Si	2.37949080334609	13.476149757415273	11.074994568606128	14	1.747297464519433	-0.2923902107757517	-0.6494617180904688
Si	4.0113553083543225	14.744869306096149	12.26328857125307	14	-1.540309345168252	-1.6727048140818288	1.5687395993563211
Si	2.484237533060349	10.765198776481132	13.560658900709084	14	0.9415855623550532	-1.0768673541010285	1.4898118082384155
Si	3.9346853598003597	12.181075426418628	14.862752426995803	14	-0.4394661768463104	0.5395837324602165	0.19147509829153572
Si	0.070979152372524	13.550310507652924	13.856235902374982	14	-0.5828140402026544	2.0290890649444706	-1.0917779651841635
Si	1.1966579970346485	15.070573087546778	15.332792511595827	14	-0.7444303781902464	1.8078032860184776	0.5323450425418716
Si	5.216344499798685	0.081475145329644	-0.349614965406069	14	0.36764080706478175	-0.8435097214758767	1.361855352660074
Si	6.436142881305984	1.3713670798037099	1.289498334738174	14	1.786385721591112	-0.4185114113765715	-0.7424071754138218
Si	8.081865377015413	2.5571682841233376	-0.129527113086459	14	0.6413447385947613	-0.23572999150405252	1.2622355630361486
Si	9.756665053213863	3.8610002092435782	1.3253651106713324	14	-1.4736778652439542	0.5650158207344613	-1.2754636427977786
Si	8.0822753767403	0.2134786567544235	2.6824314000709664	14	0.8786389905755919	-0.2746804373305718	-0.25682153977682326
Si	9.751121856933386	1.415286250333659	4.051190881624391	14	-3.013771237565314	0.27380600441118946	0.08334829249483632
Si	5.4858783189397275	2.7694169417030983	2.817977309118774	14	0.33392358900689184	-0.12334517818665588	0.8791930637720837
Si	6.913169361218092	4.263390339237167	4.024819699319628	14	0.617656631059173	0.26734353118899723	-0.783663902712514
Si	5.52909228994287	-0.1309539121290675	5.522089494641791	14	-0.03767569180878987	0.6448329571826062	-0.8087465777737505
Si	6.827463018727609	1.457729421854013	6.602274769830399	14	-0.1696248168387893	0.4412561803701975	1.676605437963026
Si	8.274614447679525	2.904077251345149	5.329110824131743	14	0.34511406780230436	-1.0255403785949126	0.652001198815179
Si	9.625743941062789	3.996660918214354	6.99328330746111	14	0.2329154025100864	0.5383963960233722	-0.21497320114396506
Si	7.936430274603319	0.05149596544587	8.250358863955181	14	0.8125315019155406	0.6033412308576525	-0.9764890884076595
Si	9.349863326180486	1.2379203693473264	9.745267060861991	14	1.2086537281642626	0.43982767425432323	-1.4740964411900743
Si	5.389708783470115	2.6958629910582808	8.312662422149085	14	1.9032743400978123	0.6673170160967691	-1.5773510024050934
Si	6.969322923538684	4.26319353936922	9.52959080558217	14	-1.7347481565623222	-1.6246860797911473	0.6262466939337877
Si	5.1742949280142225	-0.5043488615786115	10.925295469055204	14	2.6866885884837397	3.1927847025911555	-1.6457092366624024
Si	6.574476788483026	1.3070955229303454	12.079493894580501	14	-1.104119784941938	-0.9218764974129261	1.2892496524138803
Si	8.018725419382738	2.654797418613549	10.938038260504708	14	0.8530379806818135	1.3417773341045056	-0.10996257499528514
Si	9.626039140864707	4.097930850261567	12.138861854744212	14	-0.8900518699811972	-0.8764725772328351	0.9175102463582506
Si	7.988697039531978	-0.010741992792052499	13.476510557173174	14	1.1117870781171517	0.5597941629397726	-0.757862603714296
Si	9.500480825115158	1.2526475594652855	14.814241259547114	14	-0.8150380724921529	-0.3967539468258825	0.9646954283041403
Si	5.232678888838203	2.762692946214943	13.656894036134679	14	1.0335673694044147	-0.20100258616587646	-0.9094958539648171
Si	6.72304428879326	3.9542833466499823	15.027359116543636	14	-0.920500956066647	0.18543248656812372	0.8010381469134147
Si	5.273400061514029	5.42887195719137	-0.01377599075622	14	1.992736463933429	-0.12890956432052034	-0.5214265866893308
Si	6.799255037655349	6.783199448428754	1.2109587874387244	14	2.1968266904782707	-1.771500564450647	-1.6865543299993389
Si	8.21329488882535	8.226119680219831	-0.022549984868812496	14	-0.12480325201371187	0.8042867384854216	-0.3203237274159686
Si	9.54453119555707	9.761207850165617	1.3647250842605323	14	0.634046399032989	-1.3057571770113592	-0.8285600295918756
Si	8.456588725573594	5.502688307660114	2.4392851632236834	14	-1.3360301423823786	-0.1973935256279846	1.0205560338212734
Si	9.654296321903953	6.893735374258425	4.002220514483829	14	-0.9504931567367063	-0.2417198955684015	0.9021805451079318
Si	5.6428262136266625	7.98417064256922	2.529157102919023	14	-2.8063293181251265	1.384790383447391	1.1349316539880605
Si	6.844141807536032	9.414528482789743	3.733867494550462	14	1.2744848230023982	2.307262605962995	2.198152095270807
Si	5.518415897106799	5.43903995036858	5.518301097183831	14	0.40101658233615595	-0.05407522998282238	0.7024532271808488
Si	6.924977353294852	7.026804884967912	6.889602577031559	14	-0.2796457559248418	-1.4054147618834907	-0.08490149721873777
Si	8.200798097210779	8.403813560986073	5.500474309145722	14	0.1347927675140832	-0.798544174752871	-1.233192614450288
Si	9.699166691795641	9.28910136695216	7.084090046529193	14	4.849355830789055	-1.9023621119302236	-5.726564772585581
Si	8.253015662172452	5.556021071873481	8.255246060675839	14	0.7831915906652028	0.22507610238895492	-1.0100990913736991
Si	7.760359992747631	8.62314701381189	11.389825157352739	14	-0.9540757348898005	-0.7960399181710467	0.38686110488554865
Si	5.304002440979632	7.979447445738516	8.26019885735248	14	0.4126186950933242	1.8144447081709523	-0.49253147665937863
Si	6.268190594003069	9.589663965272688	9.85114538981694	14	1.801712080404515	-2.400813044368179	-2.1639561374023057
Si	5.324207227422089	5.231973689311396	10.990977424982182	14	0.06597764784138388	0.7044401773722592	-1.236493913681358
Si	6.799484637501286	6.5520088035591915	12.219631800547049	14	0.22339408528851404	0.16328215712451602	-0.056168109713422926
Si	9.738444665439864	9.410034885804977	12.233210991435325	14	0.10913853574017766	1.6265393325059103	-0.9340010587711484
Si	8.066088587601742	5.159370938028317	13.691809612706098	14	1.4751421097237785	1.8461968304326528	-1.4657922852270602
Si	9.436324068164762	6.924124553867086	14.791789674612275	14	0.14201140281093091	-1.5001569076045633	0.561434271023495
Si	5.649517409136826	8.072140183541082	13.578403688802215	14	-1.6551467358505376	-0.7171902886548736	0.5752495912402467
Si	6.7191410914123315	9.554764788690264	15.02617831733596	14	1.9568248074847923	-0.13707976569635488	-0.8341961495641723
Si	5.248619678141829	10.80729754823258	-0.276733414310067	14	-0.12667475957624766	0.665421083033692	1.7401721603457068
Si	6.4199396921784295	12.20027981353236	1.3280547088665944	14	1.0110982229011087	0.8336294779516117	0.0011261441302248586
Si	7.942842670300559	13.675360423743612	0.18062947879643698	14	0.712926881813004	-0.6614600381774718	-1.3486267586773801
Si	9.409936485871002	15.056993896658504	1.3824698723536635	14	0.7181030310435261	0.22631280404794615	0.4260666043598267
Si	8.197354099521723	11.0911321577777	2.5371274975708364	14	-1.347217021630343	0.3802273960490346	1.2083068860565747
Si	9.56494918185647	12.416628468360996	4.100046448841986	14	0.9193349598039599	-1.7163148740800525	-0.4766389604544793
Si	5.541392281689495	13.99345461030033	2.8158289105603633	14	0.03684008257974175	-1.1309351278784225	-0.48630605934770404
Si	7.180374381921774	15.108571862049352	4.213403172778882	14	-2.212371336133354	0.7184709562148393	-1.0360050343584473
Si	5.615995831630024	10.940678658732983	5.352152808670421	14	-0.2390631724410925	-0.7772186558959667	-0.1585855190362015
Si	6.957941331175808	12.279606560303593	6.891390175832068	14	-0.029290031807126915	-0.8439342109642332	-1.2267802777818386
Si	8.337360805576308	13.706914002570953	5.47515272613667	14	0.23454676883572034	-0.5014650392047652	1.948798073785822
Si	9.481555237814351	15.27742614874702	6.834482214017684	14	0.6893375047217094	-0.2172761401792217	0.10842042602426032
Si	7.812085558039438	10.82486193644676	8.581376241840353	14	-10.213298851005316	7.133090509077909	4.309032905549296
Si	9.538003999936864	12.207135008932479	9.22072981282992	14	0.14156531603788527	1.6655157464961627	0.5412084139120181
Si	5.458588737251215	13.52110212725194	8.107810159606295	14	-0.4670075999252046	-0.04661568211747676	0.8614552652789143
Si	6.709612697805946	14.915035591913457	9.464269649413094	14	0.3066426188969286	-0.6392063502999942	0.5641740408526448
Si	5.172687729092664	11.05293658340718	10.936906661264016	14	-0.4846818921169666	1.2366924030120734	1.7954187859123885
Si	6.880172583359146	12.273358164496308	12.132416659068982	14	-0.7782270434025289	-0.4790244319705127	0.2120084595993023
Si	8.215869687097642	13.534222118448339	10.738909594121345	14	0.16823564863431328	0.9421267800249444	-0.2845033452061975
Si	9.50135002453192	15.098190669015201	12.130350260455547	14	0.6755088147572929	-0.7720350504600162	-0.2647593132317164
Si	8.184086508424365	10.823139937602233	13.423866592497617	14	0.5417151787706193	-0.09685945095221447	1.7887773637599138
Si	9.582087170356766	12.26653576907418	14.96421915891096	14	-1.3973306925358813	-0.7123697232901278	1.1789397210898431
Si	5.440220749576255	13.481906153552695	13.584160084939636	14	0.7688039424041861	0.21423452258548653	0.32385282657840386
Si	6.903558967666729	14.98091434770838	14.856290831331576	14	-1.794974241802535	-0.4723069051005618	1.0710687402724985
Si	10.862860710949334	-0.1577186941697235	-0.1624090910224365	14	-0.2539295605127207	0.3207536162254973	0.37116476401657666
Si	12.319868533287545	1.397836662042447	1.1044572589019475	14	-1.1260369151330083	-0.7547040008284941	1.188901725763289
Si	13.680870820046101	2.7661369439039984	-0.0777195478496745	14	0.21906614370310878	1.3760547960116558	0.6265847942833872
Si	14.920316388370008	4.262947539534288	1.3671686826208618	14	0.5284153651705572	-0.8615079729379772	0.15130903386965042
Si	13.677951622004901	0.11199552485026949	2.568336676629273	14	0.7040133738891147	0.45786680629101423	-1.0812199782975074
Si	14.827295650787532	1.4168770492662224	4.116298837936527	14	0.617727593566009	-0.2407112509513074	0.1632266212496008
Si	11.02276060365546	2.709245382078609	2.852122086207405	14	0.7719149798415653	-0.6614212144871375	-2.961546946302466
Si	12.221320999413585	4.1787499960313905	3.924484566645159	14	2.0515263297418067	1.3965074246123699	1.5890546738224074
Si	11.00424501607954	0.1643114897459145	5.361107202661963	14	0.37731999015301115	-1.8827569196430307	1.1241592369177043
Si	12.33621932231606	1.144030432348089	6.976686518597663	14	0.7060700010347011	1.3440352787966596	0.029224211510931124
Si	13.600133674221254	2.7454237578026817	5.5365050849688355	14	-1.7812825917516824	-0.5203174118542189	-0.7588933598371433
Si	15.153212632095103	3.809356643896749	6.70088790366034	14	0.8480474652554061	1.0684559830461644	1.9059230927986288
Si	13.987813014085878	-0.1345619097080775	8.176624513431412	14	-1.0453363468968606	1.0048110990617507	0.581159791039671
Si	14.954165965656719	1.343716698357297	9.910332950101699	14	-1.3071265477048701	0.8442735968664928	-1.4913922666787105
Si	11.114879341843183	2.617864643395683	8.43782713816274	14	-1.3369138312809137	-0.04862937180421674	-0.17161022436700765
Si	12.300746146118792	4.218323169477533	9.84312579519814	14	0.8015788503622417	-1.739576178132496	-2.2618111203344817
Si	11.109450945485671	0.0765387486419985	10.751373585757927	14	-0.4350289632847989	-1.4058055698921532	0.7021305534631702
Si	12.239885786956492	1.2305075743213605	12.408526873797218	14	0.5296898620777547	0.19849087337862378	0.30847144611115
Si	13.4909917474562	2.8559760836213473	11.258280845619835	14	1.6041997697107395	-1.2330514607682117	-0.1958287509301425
Si	15.47666961505335	3.847027418619412	12.256892575544827	14	-2.901058608319598	-0.4706585694798149	1.473864270379665
Si	13.54302891253892	-0.11550512249530649	13.968953026741053	14	0.41982447486357116	0.638336545370188	-2.097613906826525
Si	14.93812677641912	1.4010018599185785	15.039905108125193	14	1.6366221791294029	-0.6037155837922661	-0.6907336149105497
Si	10.86743630787908	2.619471842317242	13.620814060344578	14	0.36972725903208187	1.293913123243565	-0.2246385002634657
Si	12.344681716637737	4.064868472446639	14.976273150822653	14	-0.19271154283999492	-0.20718146647125632	-1.5630312313245285
Si	10.824845536457765	5.317975231603799	-0.2451306355157385	14	0.006095319382475051	1.1756582193697385	0.6555881478473177
Si	12.166217036388707	6.881041782775908	1.117888849889262	14	-0.7528178379656334	0.6552752443298555	-0.34904991582638706
Si	13.702797605333082	8.131868943462694	-0.282375010524519	14	-0.4663627667109114	-0.39574478798772433	1.4997380745479112
Si	14.956429164138097	9.44985405908605	1.1583148227631694	14	0.6631268857565239	0.9279445630790076	1.0787964544227355
Si	13.559740501325336	5.899863241153134	2.597053057360393	14	0.2206098353373257	-2.607757454928918	0.34069305220430973
Si	14.945933171180979	6.868331791304395	4.154297612439101	14	0.2762583246655467	1.2402379572485578	-0.573848595951298
Si	10.875095102739978	8.296049233296642	2.6792006022388533	14	1.1823834595556495	0.5088016882358076	-0.4394507502143895
Si	12.51158440464494	9.484441635877559	4.095421651945255	14	-2.1049844944477933	1.293688151528052	-1.245139255320356
Si	10.872175904698778	5.416112765752871	5.423361560888882	14	-0.6635506039132841	-0.7506701936917137	-0.34090645394588204
Si	12.286773355494628	6.60066757090884	6.727718285656978	14	0.39595124774493223	-0.355022593485091	1.5016026401260825
Si	13.477002556843038	8.111893756866174	5.520974295390098	14	1.9235135669569539	0.15920849785527338	0.538601056006856
Si	14.87959521569418	9.63812593275439	6.7401002773485805	14	0.3280560695557819	-0.06580744066919009	0.27141976156356
Si	13.779533153843026	5.166619733164328	8.226496879966726	14	-1.4743895471965713	-0.6882064754913763	-1.870541084045943
Si	14.959282762223316	6.557847199641589	9.422285677584615	14	0.9795227355749021	1.4781950401809225	0.6444236372156387
Si	10.972199437582333	7.842933937339973	8.258214458684025	14	0.3905354714985723	0.03722163460925172	0.2553621803971072
Si	12.197491815403124	9.511239217896206	9.38932169970366	14	0.6085184085303028	-0.6282413574411586	0.8612994562965132
Si	10.756145982555616	5.580079855729879	10.597492489013149	14	-1.6289366311064162	1.1130687741192455	0.8955648340086587
Si	12.323214131042628	6.570032391465246	12.151047046567868	14	0.026287237903725974	0.4360851733503157	-0.7295331368547764
Si	13.72580678989377	7.939710272402419	10.858268714030594	14	-1.316794675040223	0.8838305664380349	-1.098233496421991
Si	14.924416385618882	9.447000461000833	12.078805095042691	14	-0.03753299546352166	0.40216329530894196	1.615630646853586
Si	13.773989957562549	5.339918416879777	13.449417775352607	14	0.699591586959524	-0.9656454517199348	1.2749435081915126
Si	15.08161028014075	6.715090294130444	15.031327913880547	14	-0.5395816755759605	-0.3505105607587631	-1.4751099709072768
Si	11.095822554630413	7.999340632390057	13.439889381746221	14	-0.3958206355946687	0.7323464402960824	1.4418599226860576
Si	12.274571763681974	9.466024448235613	15.037248309907921	14	-0.4913431117804062	0.9551545706821347	-1.1162615727058054
Si	11.074814168727176	11.00048941859957	0.08614914219336149	14	-0.9833061170535	-0.43586868628235914	-1.4159812334177033
Si	12.37841649400148	12.443344050434664	1.30084712712306	14	0.31190592859780375	0.498320834508756	0.3944576926644582
Si	13.856891901934802	13.69971440740193	-0.186992674526691	14	-0.9208146309157049	0.6393181933814206	1.0571372060952762
Si	15.28362534458732	15.36810168790314	1.1688764156762714	14	-0.593555604009169	-1.2723628897816799	0.023496303078705233
Si	13.685659616832785	11.00603261488005	2.6215546409196704	14	-0.3478823769005078	-1.5378685948878352	-0.6562463508092755
Si	15.00981112831845	12.335563322756238	3.833595827632098	14	1.062013564445469	0.8719348334533058	1.776293104767403
Si	11.040013392078725	13.793128744720297	2.831736899885998	14	-0.9041883212524353	-0.2957388183447126	-1.2976638516845973
Si	12.471880031286835	15.210809393447299	3.933766960416612	14	-0.7265722519680938	-0.7461321928016524	1.8399778408842788
Si	10.997898220338282	10.85551351587935	5.50365590701085	14	-0.23388162388939807	0.8777460456979045	0.25802610261931264
Si	12.204379810781235	12.690836284365755	6.830956216383651	14	-0.5092832562622714	-1.147523899404018	-0.779898261860625
Si	13.773005958222818	13.745617976600334	5.414833566611221	14	-0.19707008057870995	0.24663482049839655	-0.8842815383111889
Si	15.24444577087707	15.075476684256433	6.700920703638331	14	0.13016992014845694	-0.43161890629868643	-0.3033276928076617
Si	13.341079448048335	11.12155413736435	8.106432560530672	14	1.1504133075628005	-1.1476357424854442	-0.43200405787564466
Si	14.85612683144162	12.196868615821296	9.527475207001752	14	0.616508889644259	-0.4310530060177219	-0.6311693321797432
Si	10.93616866175922	14.019464992847192	8.31121922311748	14	-0.5496892048105266	-0.7669131515517493	-1.0444719412882268
Si	12.656658707299133	14.947294370267606	9.586892367132448	14	-0.5787079850063779	0.02004433707587442	1.0296788297182229
Si	10.80729754823258	10.988484626654865	10.609562880913836	14	1.090262041487404	-1.6350347787047435	1.7784186375355693
Si	12.242476985217781	12.21959900056906	12.142453452334227	14	-0.39180276931087327	-1.068502520052459	0.6302661028807752
Si	13.904025470307868	13.375371825037925	11.179495298485453	14	-0.7000009069264915	2.443796011778819	-0.42931545304236574
Si	14.994411538651677	15.114935057779606	12.42546806242957	14	-0.07123607244215073	-1.7561932318166134	1.5199132808845812
Si	13.642986845466496	10.927181467789685	13.717672395352	14	-0.07167573145189605	-0.6735506609454682	-1.001239576661533
Si	15.196328203164272	12.213678604541682	15.08354547884222	14	-1.2360825368301345	-0.7155422101446586	-0.04936213682045894
Si	10.787355161614052	13.441890180403673	13.469983361552964	14	0.061507009910710404	1.5861434112684036	-0.5554831906494802
Si	12.130973460037376	14.777964483889068	14.85820963004405	14	0.19575933108649848	-0.3520753354566053	1.0867820504365835
H	2.9584104148872403	2.66441601215941	1.8437900828047817	1	0.4196522108071213	0.21253707885312476	-0.07897561367686048
H	3.5214236771016547	3.8574217316447603	-0.00482979675917475	1	-0.2641700158923385	0.040375609505477375	-1.1368232161720937
H	6.536510813958444	7.221628554239954	14.51376722116716	1	0.415862658675755	-0.35222291690198176	0.32445112278640226
H	2.7510341940380427	2.233673581190401	15.643560823068256	1	1.5607835710536548	-2.8821131616575553	-5.634084942435706
H	6.984919313073405	9.414895842543242	12.579213039265685	1	0.144426184927614	-0.3935151254540919	-0.7403472058313192
H	15.774631175119191	0.5263363268248784	16.061937662334657	1	-0.7669540321263395	0.6831272569314237	-1.0635433721109573
H	1.9872834265198085	14.170604011431921	14.559675710362264	1	1.5760374246970295	-2.0301735571685087	-1.6427642926287045
H	8.531410395367761	9.726133193700942	7.750441279403153	1	-3.9610551406414105	-4.009721022141174	-2.2652162922204857
H	11.597514617991752	4.657514874777022	11.529369383717652	1	0.38583394831014955	-0.7987262090095375	0.9873144702476109
H	8.825355598128608	10.284613498957	8.164700081432784	1	8.932729507262788	0.4233288914149331	0.870410167998458
H	14.373184875498835	14.466128533133032	2.030361277614288	1	-0.730968070733951	-0.766945804589315	0.5726010956499622
H	0.1222750379526489	4.967927306488248	13.751771252471446	1	0.046752207809976624	-0.10343505280849317	0.08894893121371487
H	10.15253782758064	6.924527993596375	9.235032243232896	1	0.06995360510846087	0.5562807475197902	-0.4803128128464389
H	0.22766628723443053	0.20429466291694348	0.6154571470242245	1	0.6768974687407049	0.24359448845732146	0.4068025977486172
H	2.806249676988092	10.309595602193845	11.16397762889791	1	-0.13488815552146066	0.40928474282468813	-0.31012029595296087
