224
config_type=interstitial dft_energy=-23336.27920067811 dft_virial="14.936400205485011 4.297547273833437 -17.763733938270164 4.2975472738334375 17.44464913128441 7.258169596878464 -17.763733938270164 7.258169596878464 17.630445348010294" pbc="T T T" Lattice="16.3852778749 0.0 0.0 0.0 16.3852778749 0.0 0.0 0.0 16.3852778749" Properties=species:S:1:pos:R:3:Z:I:1:dft_force:R:3
Si	-0.8999777725567575	-1.004761624566743	-1.8879444873017281	14	-0.8607993763117445	0.4479816776666408	0.5102024264142243
Si	-0.04140559718987231	0.026773544047586605	0.23026230997596972	14	0.6076951406067913	-0.3404621669465604	-0.7627739290968429
Si	1.4858825388074317	1.3401682626659461	1.3842938159830518	14	0.15183456779708868	-0.29142553205963223	0.42591208093008576
Si	2.67982858171777	2.678829079767401	-0.011568006179679402	14	0.3917899137842726	0.4995061140613443	-0.5387319252676515
Si	4.0006130606577095	4.085816505607189	1.3428226776816798	14	1.3956011099870176	-0.5233544014583777	-0.44479607817497735
Si	2.8857095982158887	-0.013616165914041902	2.723380650309254	14	-1.3845381580154845	0.11480833719216821	2.2384156045843264
Si	3.9954025422934913	1.4462629369059234	4.2568460360653955	14	0.6089835214827175	-0.6632474705960387	-0.38178522876251236
Si	0.08864435330320901	2.6777148808719082	2.6878245973207213	14	0.24603138207975783	0.02103087018721524	0.8261205648641191
Si	1.3821309593035649	4.054225689864382	4.15293060378278	14	-0.04443795591131134	0.6948728373654561	-1.1768720381913802
Si	-0.12185731155563131	0.0022283977909864	5.582202007532432	14	1.0198137557153466	0.41365099387936366	-0.8486809856062906
Si	1.2798212842526893	1.355406571089603	6.998660123983912	14	0.08049873646851621	0.2414733265681993	-0.9509148180092104
Si	2.6391111661986435	2.8075682080304905	5.566324673271654	14	0.15213615845114206	-0.9294388894910778	0.6549078333796065
Si	4.159288091598241	4.164514995240334	6.699825426101486	14	0.24572027833601987	-0.35170869583795217	1.3404514150909055
Si	2.686874251203977	-0.1473855744847255	8.088330258498388	14	1.135024985111182	1.1032548651122405	-0.16537246574979636
Si	4.083506181426829	1.2366952328859526	9.540147804603901	14	0.2583734589480646	-0.3642901426115648	0.08056429965417997
Si	-0.18141779663089283	2.631147921151442	8.305074714227565	14	0.023260275610315646	0.7025164763717244	0.051968980504557075
Si	1.3137551947316073	4.100612411528224	9.538820597096034	14	0.28305812690574234	-0.9672138259652254	0.356516148565565
Si	0.08249987410012151	-0.17320877241556792	10.889639290380668	14	-1.1220157064122969	-0.054433127843387004	-0.4556849663163365
Si	1.3064801313551517	1.261174838031053	12.21709257741569	14	0.04707719552244334	1.4392150266432213	-0.5044120401227188
Si	2.826312965919376	2.6994745298897755	10.86784687080705	14	-1.1512077791067261	-0.08467215462418057	0.1350743035466394
Si	4.223501995589974	4.036513204481616	12.227103982197255	14	-0.8818487584572647	-0.8867248596969256	0.8347666778347131
Si	2.5842860264292282	0.0053907564208421	13.586017002752085	14	1.2839542038965035	-0.8782317274928805	-0.12455436901872152
Si	3.987062435855167	1.3775266962207182	14.847404849395513	14	-0.07716092754189997	0.27979256603862224	0.6997545950368214
Si	-0.08132013409312872	2.667900099424843	13.574956940186528	14	1.0606863598792087	0.5072862787601123	0.18929300120632606
Si	1.261158452753178	4.062696878525705	15.076241640196365	14	1.4036378709967363	-1.2313961831631006	-1.6035734484547515
Si	-0.014566512030786101	5.418889942953304	-0.13594865052804533	14	-0.759045055051032	1.2296614584035968	1.7271405130305362
Si	1.3606334747316962	6.791501055811552	1.4193910811910875	14	-0.9528783711422077	-0.2234192821206515	-0.22374349850152217
Si	2.729623441179591	8.210302266999143	0.1959515381059291	14	-0.37545002525366744	-0.583171166731623	-1.676214629954363
Si	4.127123791129812	9.44698111460722	1.460944145881834	14	0.2968631627012134	1.6102488091974518	0.1744690363724803
Si	2.7741750117214443	5.432391411922221	2.6823846850662543	14	-0.6429215974876081	0.5053399520327603	1.0894210329371836
Si	4.079049385844856	7.024122845801507	3.9442149342123036	14	0.9668962944581869	-1.9435992988284827	0.0025842179572808342
Si	-0.06214935897949571	8.188968635206024	2.7868244462408676	14	1.1238306496577894	-0.8463232820277148	0.8239718921480714
Si	1.4320241304326355	9.647471374684498	4.054192919308632	14	-1.2977013898222711	-0.5421054725582177	0.3787469536056934
Si	0.048615119454828305	5.384775794417762	5.508075010426385	14	-1.4887548268413024	0.13194141171403898	-0.09318739833397899
Si	1.3027606732775492	6.808918606192571	6.7973833705686415	14	1.0659980063601027	0.3769854893508599	0.28859088844416897
Si	2.7353091326021817	8.160179701979823	5.307764988405731	14	-1.0541302984233631	0.795662479910049	1.6562469118170289
Si	3.871284062391124	9.689401300766367	6.814505985947911	14	0.01486330274524403	-1.3770562415338534	0.13356249361839234
Si	2.7181537466671615	5.36691584153412	8.192278461336752	14	0.3125073101321864	0.9316173870288391	-0.5737766050023339
Si	4.2121961538562935	6.780227984633621	9.496186104065545	14	-1.3182643188412195	-0.5303344381815157	0.7469837428836854
Si	0.019629562894130204	8.273369201539634	8.177236776247595	14	-0.8358686535749286	-0.4624906820987684	-1.0220796708339932
Si	1.3611414183458181	9.4748033164388	9.582552903744142	14	0.5011117693337768	0.22149480978852068	0.2573349895092569
Si	0.22893510246810284	5.528376369713386	11.024293503956594	14	-1.3371704275918643	-0.419612872895723	-0.43357885988423533
Si	1.5184892417784828	6.7414604171816075	12.466263498059293	14	0.777187288411061	1.1022824730801604	-0.32660648037628237
Si	2.909845112525616	8.285150216331687	10.928357701999056	14	-0.9112377778192173	-1.4543722067265585	0.16654823221270013
Si	4.097531979287743	9.654222109168956	12.363544191061546	14	0.32971314693461734	0.6314009887690886	-1.2102490990154144
Si	2.9259026848430185	5.278664734899909	13.773464581640942	14	-1.502754752420041	-0.13074301952431794	-0.5923885793043537
Si	4.02759961331767	6.813047696217045	15.006112650891794	14	0.9212434912831056	0.851503287916217	1.0032825769489224
Si	0.0372928924432724	8.175041149012358	13.730174677495455	14	0.48422577803317224	0.5437666637055655	-0.2574329486219545
Si	1.4023831627569412	9.620189887022788	15.108209317330296	14	0.08948140712551755	-0.4217106377264318	0.16046833946214592
Si	0.19516504476793392	11.109267555015826	0.10116270559963261	14	-0.45406259885932304	-1.2196400611972553	-0.25203902677081585
Si	1.5456068766614421	12.416517794431098	1.4185390467415928	14	-0.8741760659608788	-0.033979470800544996	0.6969037534578412
Si	2.7531690854858226	13.766009280207863	0.026560535435212904	14	0.7382157595209164	0.42735807056213704	0.07730465232929624
Si	4.185815856477705	15.21907210743187	1.3863419757174142	14	1.1939004687267207	-1.4757805151747716	-1.7491998253458105
Si	2.8092067358179804	11.01210285721767	2.8060443771881247	14	0.20097224712309872	-0.6310122376446823	-0.9835791684384999
Si	4.0999733856911025	12.400755157115444	4.068349799392546	14	0.45641053223768235	0.46289948784467205	0.6657666395887198
Si	-0.09555894056641681	13.507924768400311	2.812778726394709	14	0.32507898670558244	0.23215409822479058	-0.45931356725466144
Si	1.220572119457051	14.983943369927053	4.038528593660228	14	0.42217652201044265	0.7569156656248854	0.6521490373710875
Si	-0.18061491801502272	10.77551582998199	5.47618925968183	14	1.0860217745934158	1.086927574997704	-0.4470026007607285
Si	1.187293620093129	12.303115286258915	6.8877809486044645	14	-0.07416816094924761	-0.7785497171202075	-1.4815755294558532
Si	2.5692115707843204	13.6449548472681	5.469880927699992	14	0.10670061367561326	-0.33016077637085517	-0.8904467917583719
Si	4.056929260713741	14.972408134303125	6.5959099938188706	14	0.6066199043619054	0.7538478227568848	0.8629804449548261
Si	2.5119450246115447	10.95596689521826	8.18374173156393	14	0.24031658628466468	0.01591745592650474	0.37602955239282887
Si	3.956012334282232	12.242653610900534	9.508606144694719	14	1.18454267380351	0.4201605183289145	-0.0628820370359256
Si	0.0061444792030875	13.59361977168604	8.290229652472904	14	-0.7437624050280719	0.457846751669517	0.10093259600039306
Si	1.4532102947248813	14.9478138322129	9.448668798228335	14	-0.06885034381558533	-0.5150078222575811	1.466743337084983
Si	0.040471636351003	10.835961120062494	10.912349285515278	14	-0.09577470161764401	0.08323953473979405	0.9222683338637166
Si	1.4989907611073516	12.29323496370035	12.1991998539763	14	-0.1538819389635226	0.16172792395848648	-0.07463224545953434
Si	2.9725351856749835	13.796780832056923	10.922819478077338	14	-1.4686924920281872	-0.8128492905331108	-0.06155097581168495
Si	4.259860927194378	15.061150799273582	12.352434972662365	14	-0.7165693667200578	0.47722902912545334	0.3047762535450331
Si	2.797327409358678	10.976514033673386	13.76165079629314	14	-0.7661667596773103	0.03671461264011852	-0.49513652056975266
Si	4.102955506264335	12.382862433676054	15.036785891073606	14	0.09419681428266913	-0.8732329845294486	1.4161882073959753
Si	-0.1727991404686954	13.327555629553414	13.640055649183505	14	0.7874341715539791	0.295849632984011	-0.5104204561453729
Si	1.3755932334314798	14.950828723341882	14.939211561328577	14	0.2061052017842423	-0.29369376117306684	0.1279608264573857
Si	5.472273178269728	0.1591174334431539	-0.20134229452677121	14	-0.7983261450217224	-0.4348644125443094	1.1206962151619968
Si	6.650489354420163	1.3679249233860267	1.400285847188954	14	1.1441462383449392	-0.18684453760994904	-0.24602778253230959
Si	7.978008182566685	2.720972014461644	-0.04289665747648821	14	0.07403292080940782	1.100243072340219	1.6061083011898856
Si	9.596054372713061	4.053422811248512	1.3677774558851525	14	0.20195080980794705	-0.4164090185562865	-1.437281298331938
Si	8.273336430983882	-0.0178435676057661	2.620169784975259	14	-0.19606683528278818	-0.023662910703450828	0.4478922032014997
Si	9.607294673335241	1.3888816937880237	4.079475403069603	14	-0.3133945985781695	-0.33176900274860777	-0.3504851068160937
Si	5.355495302855316	2.6627387368942497	2.7922315879395843	14	-0.1721151894518847	1.224511020226276	0.23156377244328458
Si	6.824222455727727	4.094812023160509	4.119717645530358	14	-0.2693068272114624	0.3355971214597762	-0.6882902935248131
Si	5.590378261192008	0.0554477803286616	5.427148123002254	14	-1.0586644426554441	0.044004981775398404	0.1943552504711656
Si	7.061514049912029	1.3115923380521204	6.774607834322531	14	-0.9927024785565133	-0.28788743402857647	1.6193068132403337
Si	8.206894129201164	2.7371115131684207	5.428819421345493	14	0.48293765426777807	0.4050470470360201	-0.42451159986220105
Si	9.526449712300487	4.172445469731786	6.7475721258289445	14	-0.15259278675600035	-0.3762465536818494	0.4112475246260892
Si	8.401076057296603	-0.0723573870955584	8.314332396226883	14	-0.1558215808170423	0.8251240044420298	-1.3655394894733142
Si	9.785500955502654	1.2829181017710456	9.553747585240068	14	-0.3626312654590052	0.5299832251947836	0.5029447103165103
Si	5.488183283086256	2.619088356635516	8.266995328446297	14	0.516185902715273	0.4025615595230329	-1.2395175335378523
Si	6.958548963746157	3.9679244312972837	9.6017728346914	14	-0.8365646517850928	-0.01439433313484902	0.3490943959484256
Si	5.6043221326635475	0.0380630005033927	11.041842136560613	14	-0.4422134028808886	-0.39023516639717903	-1.4955476870971338
Si	6.871952770177311	1.2751514800583428	12.445306727657298	14	1.302540724255854	0.958305460251976	-0.9491906347815191
Si	8.42129549019423	2.6704234322175777	10.976743427563635	14	-0.9723987169538358	-0.7560715717482808	-0.15965304196512697
Si	9.64099918992391	4.0930424131500205	12.311619245475988	14	-1.5053623674357353	1.3362242608340498	-0.10616582376902245
Si	8.224557458750306	-0.08784147468733891	13.722752146618127	14	0.588626023778849	0.5527997280268416	-0.9284634121326135
Si	9.29372961064328	1.4251914695588022	15.08715423526105	14	1.5174378206823427	-0.6873693235991359	-0.13904948948212037
Si	5.520921068280306	2.6448951692884837	13.644070042262856	14	-0.5928367229616556	0.9629653315342124	-0.03367350926744738
Si	6.737069162711133	4.165121250521706	14.979388262677832	14	-0.46913184714071104	-1.581080390671968	0.6470281669049486
Si	5.493967286176096	5.4567890906779475	-0.0247089990353492	14	-1.1667948479995918	0.6805574371639357	0.6487006709157049
Si	6.859827664549885	6.848538208094078	1.323815755346796	14	0.23681731194394318	-0.46218086390769064	0.5450810127452251
Si	8.172911062888621	8.210744669501766	-0.05508730421541381	14	-0.20247351551953316	0.5263358551876216	-0.31946960622861537
Si	9.529349906484343	9.616339346722187	1.347377784930902	14	-0.03352001427983453	-1.365034010167373	-0.25371770143434047
Si	8.310055838701535	5.372470450733712	2.666851441640849	14	-1.3645331588510081	1.0519145198584594	1.0304043956395685
Si	9.516651316131295	6.910654796517825	4.105478839057069	14	0.6005986328126506	-0.8762314075538051	-1.4597743561147216
Si	5.611515269650629	8.302977398659579	2.787742021801862	14	0.3564778390962948	-0.5403890026464869	-0.26308398100510794
Si	6.944129919216246	9.6225985228704	4.203528341860472	14	-1.3432989142329694	0.46086522931537083	0.5542254059268638
Si	5.487118240024387	5.628539573362649	5.413744965700586	14	0.11014872302046386	0.2925365066684682	-0.2884661898361418
Si	6.79266441054067	7.184288937028655	6.7913535883106775	14	-0.1392117262278217	-2.136146290927988	0.22926211896068802
Si	8.351625288670157	8.281168593808086	5.456920172900947	14	-0.5762034713140216	0.6637519214598518	0.2556815116778696
Si	9.59384236019995	9.67088593676773	6.825254728233846	14	0.6058771120349146	-0.2836373969343717	0.4632535290472564
Si	8.028753388145251	5.414777238206704	8.139075464076953	14	0.7702496749257054	1.3541199251938765	-0.2925537330741132
Si	9.561432280563396	6.885700018314353	9.47968612924552	14	-0.9284035053786541	-0.9947647621338042	0.09366793791831467
Si	5.267670213445852	8.282708809928327	8.175794871794604	14	1.030186623018952	0.9929724446151288	-0.3928134708122235
Si	6.823272109610983	9.556549467756676	9.539377696543783	14	0.5344939723684514	-0.980909075563526	-0.30088051476394473
Si	5.457378960681443	5.359640778157665	10.932060774798781	14	1.031490944747863	0.5385789445011027	-1.3576371972718393
Si	6.664924784227949	6.819847586535128	12.248585081491248	14	1.1439053257764416	-1.1004143079545408	0.4232293896390433
Si	8.169928942315389	8.031375032605235	10.987524940405319	14	-0.3702859602181501	0.9818799249324139	-1.106341219938546
Si	9.462104726085753	9.507475560521351	12.238852226433558	14	-0.21773893913684833	0.5339954350468746	0.0691519344696387
Si	8.078122230382323	5.366031036528876	13.72199842383588	14	0.7408791675220578	1.1249925321519643	-2.046692137518864
Si	9.428056118661711	6.815587414287655	14.915403752576347	14	1.1647703596705072	0.2524133797054294	0.1992184961842257
Si	5.380073219667666	8.187428419085784	13.518624354852621	14	-0.2604856219685663	-0.254837417801265	1.3573520616918346
Si	6.732530440739787	9.53144722205233	14.876275709011086	14	0.5301722014358146	-0.21949063319146525	0.8154023981160179
Si	5.479695709147058	10.793572406200127	0.0372928924432724	14	-0.6615019471941903	0.6928735458685089	-0.4350934980283345
Si	6.861204027891376	12.176112997450565	1.3653032789260426	14	-0.1714042788308638	-0.3627531358511802	0.6019096394153941
Si	8.175876798183978	13.46012891283923	0.011305841733681	14	0.7269810577139975	1.0636667851663244	-0.5689858644593019
Si	9.629906356802605	14.783305642348903	1.4172937656231004	14	-0.008219823708513409	1.0518723537312091	-0.6430887193334177
Si	8.317068737631992	10.85454202517263	2.835898353476193	14	-0.19663710644279703	0.8689927176354604	0.0321442158230233
Si	9.675408273461201	12.337884845909453	4.074232114149636	14	-0.163281900013984	0.6059385614520661	0.19540091900486983
Si	5.601192544589441	13.737974069763908	2.67411011973943	14	-0.6454667346440227	-0.11356212244349245	0.4289336439023238
Si	6.933102627206438	15.080354344942965	4.14146090927035	14	-0.35803644314136857	0.3642706022111316	-1.4231178504548383
Si	5.275436835158555	11.008776645809064	5.628474032251149	14	1.5421062906765033	0.29506184631391763	-1.457177025520308
Si	6.745835286374206	12.367361960806399	6.8874204724912165	14	-0.03208250929533974	0.6969227796372102	-0.22147861182500372
Si	8.2053702983588	13.803351328484759	5.484594907231653	14	0.9529107670692414	-1.6038650117980562	0.7465569394005408
Si	9.728381876830753	14.94751889721115	6.959040522082405	14	-0.8891882357041595	-0.5927112530220322	-0.09056127135997974
Si	8.153052106104242	10.993341714050908	8.163260134220305	14	0.06454734195178552	-0.18042243074128317	0.18025505178494153
Si	9.574573273419066	12.327791514738514	9.501445778263388	14	-0.7880280968829333	-0.8396283808845811	1.3962019773003362
Si	5.347876148643487	13.834106495055945	8.244596653591309	14	0.3317075533314562	-0.9780340655945365	-0.3463435703663991
Si	6.961072296538893	15.079076293268724	9.507688569133727	14	-1.5192036558162203	-0.3537838349418436	1.0685683403486546
Si	5.488658456144629	10.899994785997603	10.76715933826579	14	-0.7907046175212075	0.8987596894794747	1.403612159943535
Si	6.737151089100509	12.338556642302324	12.284157519757656	14	0.3980744665183105	-0.11039503491013405	-0.2897910804076141
Si	8.20591101252867	13.728863855265464	10.95880154829062	14	-0.19113108439969992	-0.8288312812031513	-0.4925520455019399
Si	9.556303688588553	15.128133815226173	12.200608987873542	14	-0.40905848555651514	-0.5593023104920282	0.8788590771909967
Si	8.142221437428933	10.947659559335687	13.648657920067828	14	-0.3640911390597853	-0.4916583292926563	-0.9367670538745637
Si	9.587894504331361	12.229594544434239	14.86669032145427	14	-0.415931564298335	0.4448829815347984	1.0191676369483933
Si	5.448416213683874	13.675939407729535	13.778970035006909	14	1.377011247190751	0.8012070685329484	-0.2860004998341198
Si	6.961694937098138	15.16142869986797	15.141045414191595	14	-0.9492464277669664	-2.463424086903361	0.18310332225860157
Si	10.87343425056239	0.1706690543449584	0.032000447689679704	14	-0.9268320458069795	-0.26017014734578414	0.8841997771620083
Si	12.394086349020359	1.3969268652245996	1.4145410389401172	14	-0.7967261461809942	-1.160284037997381	0.42230533438698203
Si	13.490441676907794	2.82977025955098	0.06219851481312041	14	0.2938608830188765	1.0960372582575204	-0.04767780572522993
Si	15.124496283537948	4.027615998595545	1.4143444156056184	14	-0.15550944863117633	0.2950888429197792	-1.096098193453608
Si	13.779789298900653	0.0360148407690302	2.7977370413055507	14	-1.345445530064761	1.0009528984183365	1.3120448150717814
Si	15.053089242559132	1.5212911242950906	4.174706638078522	14	0.05875258478123577	-0.9935170047219362	-0.20716989649731565
Si	10.993407255162408	2.7543488254928152	2.7215291139093907	14	-0.13644675956653443	-0.041850909738178343	0.4128866042676836
Si	12.240933156723669	4.129466885865923	4.16105770160873	14	0.28487178459857476	0.0815472332180726	-0.24204128373342002
Si	10.838173132575605	0.0009503461167442	5.574812247210852	14	0.3415379174125104	0.08727411320817043	-0.9004098248739456
Si	12.26962377828262	1.305791949684406	6.83366037578367	14	0.1842376939258509	0.07801299184499703	-0.7433708256878133
Si	13.577398346589888	2.693428362353937	5.522330202177548	14	0.09423846618885552	0.8891344996029684	-0.268398455701854
Si	14.885877481845778	4.112229573541528	6.9011349500725085	14	0.4281456001216984	0.003026190961814289	0.11000551245413161
Si	13.553967399228782	-0.0252169426494711	8.160343554758573	14	-0.06866882377998289	-0.8360144352465809	-0.2096034476828358
Si	14.892480748829362	1.0882610006172335	9.556877173314176	14	0.9403902554917165	1.4908695609671243	1.373609417741663
Si	10.930340320621918	2.6686538222070886	8.027753886194882	14	-0.5267701148761945	1.0772967286894934	0.9715055149656165
Si	12.255745447922578	3.9905361147646463	9.512423914439571	14	-0.5705722364418333	0.42589074075592853	0.5180751509045177
Si	11.06941855922407	-0.0500897944635693	11.05132921245018	14	0.06991246742333851	0.2495643379001733	-1.3764407189202101
Si	12.102248164790515	1.538446510230111	12.333788526440728	14	0.1945807364077426	0.43969089145129137	0.19249248466671834
Si	13.612692235132423	2.6555455999071684	10.955671960216513	14	0.572979562353088	0.4983450028987655	-0.41231093378650246
Si	15.059381189263094	4.13076132281804	12.28818829811488	14	0.02252545370981732	-0.2898088210343231	-1.24524312797529
Si	13.336305367938609	0.2164822912831788	13.766123977152986	14	0.14025302388248168	-0.8650203599158315	-0.07050690697335675
Si	15.075668155470744	1.5604683236939765	15.170342291031917	14	-0.15692972721002613	-2.3098110855563263	-0.8437778877607681
Si	10.669060679628762	2.7808929756501537	13.76135586129139	14	1.2367407397920922	-0.7163215121671955	0.4272292581855976
Si	12.256925187929571	4.110967907145161	14.847355693561887	14	-0.25536680838668346	0.41541297235526115	0.6739568955860515
Si	10.914823462474386	5.502454860115294	-0.0804189438100092	14	-0.08407848640575838	-0.4301716311139751	-0.30598287327177864
Si	12.462052481645445	6.694778760516017	1.2580780205126971	14	-0.7634161912058157	0.4611367380371785	-0.0031616882121860927
Si	13.869580621655105	8.095572551319094	-0.0046042630828469	14	-1.4978603963326071	1.8505615388241365	0.488422336136718
Si	15.268326252723819	9.5402788868269	1.3511955546757537	14	-1.1131230244415007	0.5117569166907858	-0.6570559918745902
Si	13.69143988059919	5.28602172466574	2.6229061263803675	14	-0.14311543543540253	0.9396857726339958	1.8769271954401268
Si	14.922842668731551	6.783308416874102	4.190452890116301	14	0.4457980379182391	-0.41529135907361814	-0.7509321893238368
Si	10.913250475798396	8.05349515773635	2.5111257607177997	14	0.27467889466737977	0.49744125937873335	0.8381116858562259
Si	12.260972351564671	9.46667621861285	3.969268024083026	14	-0.629687604183742	-0.3341665584596458	-0.7040208300945431
Si	10.858310639083857	5.587002893949777	5.454200216773714	14	0.30023131067060743	-0.6405536094877518	-0.12514443768969552
Si	12.202739073997277	6.814784535671785	6.899480037007143	14	-0.07736353064112764	0.4368811875574335	-0.7878332070996661
Si	13.45391889252464	8.156148923622599	5.412450528748468	14	0.46958230479280094	-0.7757364136789014	0.38347084541040144
Si	14.784223217909897	9.507950733579722	6.7224207242909735	14	0.6472693365839784	0.01722306320807594	1.568385558153737
Si	13.481085683241226	5.532800394739609	8.264865242322559	14	1.9840145033558905	-0.2874580594401117	0.6507783811249166
Si	15.193232524223152	6.942180071149132	9.654631741115828	14	-0.5826572027781253	-1.2202756384323958	-0.44978299405393657
Si	10.985181845669208	8.224590229306056	8.232242154073635	14	-0.5843173654833449	0.891730801755254	-0.23429685739860198
Si	12.37901189337545	9.639737523527543	9.497185606015915	14	0.13753665111174523	-0.6846966596188421	0.8002249063006518
Si	10.811432359083769	5.495589428685711	10.899781777385229	14	1.2351669662256297	-0.27749682609826204	-0.7453711456268886
Si	12.289089488398	6.96056435292477	12.06682319402498	14	0.0178301011741629	-1.3654870389247833	0.3964626405931097
Si	13.835499243675311	8.249381154730779	10.986296044564702	14	-0.4923736107927215	1.2107142119678294	-0.6454057994479352
Si	14.981895210192691	9.677915220976061	12.498771889363095	14	1.0800948626094105	-0.7632256723015928	-0.9307519529780772
Si	13.629208595230322	5.4815308602690465	13.448216815824177	14	-0.4255127882738668	0.672647945867564	0.7758801384662978
Si	14.980994019909572	6.842688663892739	14.948239849437646	14	0.5422183440817723	-1.4469406839092025	-0.8215964479427867
Si	10.880529075882222	8.143827194660673	13.425195500409941	14	0.09392556267139351	0.44016320349860255	2.15850513701306
Si	12.266297566874014	9.601199349965778	15.08230419301008	14	0.0021743837692492305	-1.4829924655977866	-0.4594575491525898
Si	10.825245148332309	10.926391468654067	-0.0042765575253489	14	0.8655291816586889	0.5117512602590815	-0.5251235790291717
Si	12.364166831620793	12.20016658537092	1.2955347657347185	14	0.36897829605232274	-0.15506001942121445	-0.33155302990171526
Si	13.73430376751993	13.773267958306443	0.06881816707458001	14	-1.220103631486478	-0.22966783938020738	-0.5416491013638914
Si	14.966083417043414	15.025774984341673	1.5623854012053398	14	1.1935813945564906	-1.3059045013462036	-0.6649402863388243
Si	13.674251724108421	10.746005944529292	2.646533697075973	14	0.03681180042122013	0.21001173920767532	-0.4825337336219828
Si	14.837786691282947	12.149241141735729	4.071397461077278	14	0.9626814815068682	-0.0461284576593087	0.12825059002696643
Si	11.220490821230648	13.598961372273255	2.680860854223889	14	-1.1901466549593047	0.5291085351648692	1.1269853958856109
Si	12.285025939485024	15.119597085453352	4.21927459389825	14	0.39131940151068545	-0.2819096141592322	-0.9013986719800748
Si	11.008350628584317	10.854492869339005	5.3416661283289	14	-0.9810494579140061	-0.033003479221016783	0.03202517364670045
Si	12.347584930411394	12.181438212759907	6.708820943654806	14	-0.6939508389976511	1.466936427094526	-0.26259907054172804
Si	13.664961271553354	13.627651993832206	5.4045036689791415	14	0.12399232539573715	0.7224556552400048	0.9863917005482098
Si	15.043061452499693	15.021596738483574	6.977211795245668	14	-0.6721401525668349	-0.9736670432082649	-0.8007237007327606
Si	13.601337237565117	11.105498941104598	8.163899160057426	14	0.7782841219406361	-2.110356819014243	-0.16844159417045715
Si	15.070801727941898	12.130135907733596	9.53582209124493	14	0.601821193392381	0.6619773445678856	0.3437143580660157
Si	11.046102308808086	13.466502785932564	8.265258488991558	14	0.2425436777129769	0.8094929696481894	-1.354457511322412
Si	12.278193278611191	14.993397675260871	9.496841515180542	14	0.5826312346143918	-0.8146148685564566	1.2131194809948278
Si	10.8719268049979	10.808876255735283	10.88510056840932	14	-0.24468977932370456	0.3993605333994486	-0.395392803669396
Si	12.207458034025247	12.22612086552476	12.192907907272337	14	-0.3585591488529547	0.8656587653668244	0.528652678191607
Si	13.719868337712143	13.440843440780473	10.86828927330967	14	-0.9634641259663214	0.9553558882287023	-0.19351089948402897
Si	14.77473614202033	15.063805214289317	12.207081172634126	14	0.30842953709443155	-0.24923755041398246	-0.37044922540597947
Si	13.527587101850193	11.023457854784974	13.698780485087147	14	-0.506220298494379	0.25377349441978775	1.2340894159859555
Si	14.933345631849363	12.17770236940443	15.237620241986255	14	-0.007299882224964426	0.39086560142167937	-0.659866981321108
Si	10.806942792946046	13.747067898984477	13.62104872684862	14	1.299160234980923	-0.4967858846326277	-0.03747694536754243
Si	12.102199008956891	15.110191935953159	15.177273263572998	14	0.5961583339247548	-1.0853635716314578	-0.7675487287868898
H	-0.8999777725567575	0.11242266855526388	-3.0051287804237345	1	1.4620965784398794	0.07403857724111215	0.4729843913524208
H	12.251273905590518	-0.6219097758529796	12.890158829321894	1	-0.1929241732499712	-0.32246083015807564	0.05946580939704484
H	-0.8435567067223269	0.8539597196451008	1.1792173166285906	1	-1.095678074844296	1.1208617943446146	0.8517583415639758
H	14.843010317869464	3.017440678218935	15.552591161519885	1	0.43165335910997643	1.1871160931184461	0.0068540525624507485
H	3.935571700133294	14.983943369927053	4.038528593660228	1	-0.14504684975189774	0.15122315895195745	-0.1710728633550967
H	9.659129499892488	9.6225985228704	4.203528341860472	1	-0.04558389755250134	0.1159247111221765	-0.02364696985046591
H	12.302894085007603	12.229594544434239	14.86669032145427	1	0.16593733758863294	-0.12067251420636196	-0.18545408385281295
