224
config_type=interstitial dft_energy=-23335.688178680975 dft_virial="13.013813267191102 -3.3685661902040285 14.524417290136315 -3.3685661902040285 11.729395942868702 -0.6906772404375167 14.524417290136315 -0.6906772404375167 16.362184216446668" pbc="T T T" Lattice="16.3852778749 0.0 0.0 0.0 16.3852778749 0.0 0.0 0.0 16.3852778749" Properties=species:S:1:pos:R:3:Z:I:1:dft_force:R:3
Si	-0.7508717438951674	-0.5473174368552848	-2.4458140431084487	14	1.4010515961551995	-0.26042725787779897	1.8173276885664342
Si	0.0964273602937865	-0.09159370332069101	-0.1519570670118226	14	-1.486903888121328	0.05822550819060541	0.832091699859631
Si	1.3066767546896505	1.3274860575907734	1.1508199915436017	14	0.8231144285238021	0.835043328767161	1.5013437298203436
Si	2.9052736199985194	2.580238862794128	-0.08181169242937571	14	-0.8496826882390202	0.555845202278557	-0.1747976236323952
Si	3.860797484551188	4.142296558441969	1.443739604113189	14	1.571949624348526	-1.077254819672775	-0.6630338117439344
Si	2.6911016528957012	0.05552970671803611	2.6955912190334237	14	-0.13670284165642121	-0.6103801458926219	-0.3554756222425011
Si	4.225533770046462	1.341642937674687	3.981229276931703	14	-0.5190061481409434	-0.12126592531425213	0.29814228759798705
Si	0.06781866512421111	2.8035210443953904	2.728378160061099	14	0.06000779839853206	-0.5010207522054436	-0.9807139286697266
Si	1.327060040366026	4.088241526732674	4.163777657735963	14	0.6190257446421519	0.7874768519022936	-0.508302893803699
Si	-0.0485495783433287	0.026855470436961102	5.318251566245668	14	1.1583330832804524	0.8962371780498776	-0.011628338031433717
Si	1.417015215899227	1.4671705514742959	6.787797983011825	14	-0.033444166672890165	-0.5014848367157303	-0.5365868520990519
Si	2.840453460725415	2.8125001766708353	5.355233138409318	14	0.19519600191085404	-1.0746613457363414	0.6348262152765899
Si	4.204445917421466	4.014475005739875	6.858762621488016	14	-0.7797267691357711	0.37479670739181786	0.7084457023505178
Si	2.759002244409287	0.09614881056991322	8.237960616051975	14	0.7130286975836818	0.4140317745772776	-0.4601288647516804
Si	4.294958192402413	1.5697915468047947	9.603739068036388	14	-0.43285123707863343	-1.704062528787419	-0.4775133933738616
Si	0.1402743638870189	2.948776532756379	8.134290962937483	14	-1.0312022096204105	-0.7257505267077746	-0.46170263831814307
Si	1.4071348933406622	4.169823825271802	9.598676017173045	14	0.26731087815143134	0.849071279393889	-0.6639403834798187
Si	-0.1224635668370026	0.2387826544709177	10.648431614784263	14	-0.050690369828847434	0.38112162647938214	0.5044791459715746
Si	1.409658226133397	1.2750367831132186	12.180127390529915	14	-0.5196736070820538	1.3436143888557515	-0.5511843025541927
Si	2.776763885625679	2.814843271406946	10.79876653928647	14	-0.40681468194362186	-1.0492074030668757	1.2232025847288526
Si	3.9832774366660657	4.074215728871761	12.29995292762906	14	0.658703041942677	-0.069052946914813	0.870497328468811
Si	2.8083219308127356	0.12336475712012211	13.580249384940121	14	1.0538027396055762	-0.6130150146247098	-0.32672912210005345
Si	4.336118010424162	1.1812802231130408	14.978995016008835	14	-0.47408765264529634	0.9869074642754314	0.34187421798838574
Si	0.0212517054037453	2.7261333769922373	13.524949072112333	14	0.6964108725679687	0.5902831011576845	-0.2415448032960994
Si	1.465204318129308	4.105347756834071	15.027528209074287	14	0.634323307075969	-1.1471135509949222	-1.1302411865525146
Si	0.1286572018737148	5.36688307097837	-0.040242242460754404	14	-0.7094322354618586	0.11880974840191469	0.5437301540100193
Si	1.406184547223918	6.749931605842931	1.2717105717046138	14	-0.5229371110649178	0.8113477650261444	1.1783915614355875
Si	2.886332238775135	8.12482027232579	0.10643876507535041	14	-0.3017050682401163	-0.43813383006940965	-0.32463135726934467
Si	4.184390337302588	9.42818720088471	1.4667281489716737	14	-0.07048942345717972	1.062428283733609	0.3218010845329257
Si	2.6965087945944184	5.513695160737475	2.772126851987082	14	-0.9286341335258713	0.19511681186699348	1.0396400630600724
Si	3.9950912220138686	6.799497071414503	4.266808285013335	14	1.247639141023136	-0.5486489355979947	-0.15793194406381986
Si	-0.139111009157901	8.119691680350947	2.6848588620253646	14	1.1142789933934394	-0.760763067625955	0.283381314844485
Si	1.305251235514534	9.399431038214262	4.073527547201015	14	-0.4207711558424497	0.8621466354995021	-0.6306054887830348
Si	0.071112105977066	5.571780970803996	5.4867905344668895	14	-0.35851878249942837	-0.8260642576576079	-0.3859769017659498
Si	1.3995812802403336	6.787339195231327	6.8420004822219935	14	0.7806454250666601	1.0550073024480657	0.5819642898943453
Si	2.7366527253879234	8.333830876898014	5.533488576410354	14	-0.7090751089328902	-0.43018602930376787	0.7982888639945803
Si	4.2151946597074	9.562759488071263	6.868397164878458	14	-0.6787784893929252	-0.15710199126647606	0.7924861363975381
Si	2.8160557819696885	5.527147473872768	8.215480014807612	14	0.365614776072505	-0.7056887061157231	0.030007370191448224
Si	4.192566590962163	6.826631091575337	9.692367036061723	14	-1.7025959703128066	0.25941424238166055	-0.1659201111829879
Si	0.050335573631692804	8.201175667222824	8.202322636674067	14	0.2599150936980254	0.4112848056532314	-0.8849780507424171
Si	1.2994344618689446	9.660645138095918	9.505525712454238	14	0.28857443337012	0.7949217444673143	-0.1294189002844417
Si	0.04596070443909451	5.546236322597027	10.870812606102406	14	-1.1665233392777843	-0.08192492858960235	0.5535412348011725
Si	1.2452483479366503	6.9064437801039755	12.330134609474625	14	1.3412026920654525	0.3182365041170724	0.29575810163461375
Si	2.6316230942098144	8.339680421099354	10.872156198888147	14	0.6533659415191136	-1.0679371339925583	0.8392177753649535
Si	4.133759828669147	9.4296946464492	12.400968165727816	14	-0.7979746749244583	1.0826777950140312	-0.8312897721102769
Si	2.8452543471427605	5.578171229175207	13.6979612211934	14	-1.5212394570087133	-0.5959451892937146	-0.6069868010910905
Si	4.1858977828670785	6.608362805003794	15.217023947697506	14	-0.055781158362740633	1.2027247592960013	-0.20783684121736207
Si	0.0833682938274912	8.393653526419273	13.793651243982818	14	0.4958631149332265	-0.9752793833545299	-0.298417910088307
Si	1.5552086494961337	9.532790814838073	15.204308972066585	14	-1.0213890719450014	0.36837999984432435	-0.025783558371508964
Si	-0.12213586127950461	10.894309094575013	-0.0709646384761919	14	0.35481973327533134	0.0501861760755664	0.5503474077724845
Si	1.2821971495445499	12.264200251306027	1.3492948624422654	14	-0.5089356428229873	-0.5199479440197136	-0.10437042092396305
Si	2.7053404593689896	13.421738206778338	-0.053743711429672006	14	0.5081889938380164	0.2636606799284172	0.25648446786935186
Si	3.9241265835376766	14.83295303430985	1.3756423892651046	14	0.6383915670240392	1.2182218395026616	-0.10263801015924728
Si	2.599933966799758	10.874826999181757	2.719349871952029	14	0.4251273795863766	-0.9182849203912112	-0.2216166801806957
Si	4.016621477141487	12.142146316415898	4.053078720413139	14	-0.09602358461263433	0.4634607601360603	0.3008110949203008
Si	0.025069475148597	13.812625395761952	2.615844071616286	14	-0.7375835247226921	-0.8758269726869459	-0.4554653939219959
Si	1.3681051614426505	14.942373919958433	4.046262444817181	14	0.2195459119558484	1.673818616906517	0.16257767426679542
Si	-0.13426096690693062	10.864520659398446	5.285972568832115	14	1.3982246658556965	0.39152971792587354	-0.011111031641019925
Si	1.3350232854132273	12.20986666987286	6.682571728499217	14	-0.30906819965595633	0.004914667819463053	-1.3474854450257665
Si	2.7125172110781954	13.633862014146795	5.382481855515276	14	0.23355277951895112	-0.5751778574018145	0.3143528495309887
Si	4.052161144852145	14.901459881104806	6.862580391232868	14	-0.19167898694342347	0.8642117472926449	0.13457216667761449
Si	2.6528584143356846	11.052246788011173	8.077040802042582	14	0.9865472524200787	-1.827605167862662	0.662833008418431
Si	3.984178626949185	12.308669895458506	9.593432728253077	14	-0.2729961062353428	0.5832462430069713	-0.7605630356320475
Si	0.0696702015240748	13.645085929491099	7.888315171479483	14	-0.8567210890529257	0.9827106490613537	1.4225936020800602
Si	1.1861958064755107	15.192429645607282	9.381980717277493	14	0.631563739735854	-1.4414097221445	0.1617315235059347
Si	-0.041602220524371104	11.146642373848472	10.849446203753537	14	0.01702765920374468	-1.646005942216347	0.18490181043004514
Si	1.426371209565795	12.058548628698157	12.35823536103008	14	0.26032698477031313	1.173917066846934	-1.0032249841897511
Si	2.5305914708331807	13.641169848078999	10.839369257860472	14	-0.314115279399407	0.366725750681341	0.3095420543664596
Si	3.9622059693189438	14.91809093814783	12.201919810103533	14	0.2784946720730115	0.6478547772653762	-0.11731079400026834
Si	2.7558071152236816	10.853984925724884	13.781378670854519	14	1.1071300350507676	-0.4148532427270649	-0.3526669467907713
Si	4.232972686201666	12.199658641756796	15.00419557338043	14	-0.2751756322152323	0.1387566405861555	0.030109700183190122
Si	0.07230823126193371	13.57867639826413	13.46006337172773	14	-0.3336906468648864	0.09655246097698879	1.0189038415425462
Si	1.5999076875388607	15.031509831597887	14.989645446627518	14	1.1084850075544856	-2.4456621200201827	0.6876261770206189
Si	5.546564028154525	-0.109289803425583	0.11274709705718691	14	-0.43885502511171126	-0.14932619744675224	0.08999871351593135
Si	6.8760490896460364	1.5155398917610008	1.3004175785414387	14	-0.45412122006062244	-1.3148635178342598	0.6125540154408072
Si	8.30515664061694	2.802242992721148	0.03776806550164451	14	-0.2894609504845071	0.37684922076889205	0.3151642903700274
Si	9.484503400940742	4.255371361056655	1.483211738513823	14	0.12671666859296607	-0.6321856901127978	-0.5079233986584452
Si	7.964752492765892	-0.0358182174345314	2.8268372948113734	14	0.3959201373705585	0.04435773742532272	-0.27226976898240096
Si	9.558843406659163	1.2657954863917749	4.043902964803195	14	-0.06114525539216557	0.46735238514863653	-0.03934253938784187
Si	5.456100909007202	2.818316950316425	2.6100436832485707	14	-0.4151190950171682	-0.3584231373815189	0.2312169303355966
Si	6.830153926318442	3.9129518240269943	4.117538403572996	14	-0.24639030838245046	1.6587930774155715	0.010650803788713418
Si	5.443172924763906	-0.19124896335583283	5.413433645420962	14	-0.4584663880516726	0.14257627464976746	-0.0077595958562069025
Si	6.736643145486386	1.2644682788839081	6.708427696985809	14	0.4100074805301818	0.27690778586941606	0.848534432603042
Si	8.171174223433882	2.665589775244482	5.465030885449023	14	0.6332041049301084	-1.1998834308067057	-0.017932688276436806
Si	9.564430786414505	3.8839662674662963	6.872133008233934	14	0.4774213478034004	0.896037917387566	-0.019915524699335007
Si	8.031719123440608	0.027904128220954703	8.272812102091887	14	1.428042802695582	0.4884709300272688	-1.4566275803133923
Si	9.524729258123621	1.4433135868884415	9.53125059871783	14	-0.17423352312515472	-0.26761298302654873	-0.02104089749796382
Si	5.684462526749683	2.807191346639368	8.231373734346265	14	-0.6007017341359885	-0.6120140833235761	-0.9041721232889184
Si	6.968347359915348	4.20205366685173	9.537722783478417	14	-0.9542515984936988	0.03347990503684022	0.8243729845780144
Si	5.511253754334115	-0.11967806959826961	10.856622955462742	14	-1.1708595084002138	0.8402423608350326	0.6339517823572075
Si	6.651603553315655	1.3414954701738129	12.32523541139003	14	1.9147209009831117	0.21090802652227894	-0.48876429314429765
Si	8.234847413255743	2.867325316440251	10.887492818979053	14	-0.20865676670395727	-1.1107892321424022	1.3342725347855255
Si	9.593121407973454	4.131613357267534	12.429101687839022	14	-1.2249776758418827	0.42781135643007917	-0.3671751798913029
Si	8.214218348411244	0.0016221425096151001	13.674202568274797	14	-0.003119007863871635	0.7809675845632746	-0.23842065322158748
Si	9.55913834166091	1.4066105644486657	15.135261411101755	14	0.6708931664865632	-0.72449299909569	-0.9265294267107981
Si	5.509926546826248	2.809780220543602	13.734320152797807	14	-0.6930771774098647	-0.24003813557849266	-0.43010426815458724
Si	6.79918575113488	4.109657084915169	15.208536373758308	14	0.029391847577804782	-0.7462633191729799	-0.26539669024058116
Si	5.51454719518697	5.371356251838219	0.24499267478550482	14	-0.5928202678876067	-0.2492146675766332	0.08140119443588817
Si	6.852618142284928	6.754945500872649	1.5239619245886993	14	0.36682011024659045	0.2733172372898293	-0.5605315559455911
Si	8.231816136848888	8.092410192689238	0.1017361903252541	14	-0.14336200443560473	0.2117721750203807	0.47561000410535603
Si	9.610309564464224	9.48563398511411	1.4814421285033337	14	-0.9589657200981903	0.7003536625764158	-1.3808447652230917
Si	8.175385239847731	5.494213065344219	2.9042413474924005	14	0.1767264668435703	-0.1329647116314579	0.8524162874154017
Si	9.581209310958402	6.840706045269877	4.331710370675814	14	-0.1636107443844309	0.05028182119347591	-0.8629367361643836
Si	5.478024410803818	7.998145689074938	2.829950497607604	14	-0.6697459392927131	0.8470815009866265	0.6310346062609675
Si	6.8083287361890745	9.441213496795255	4.143804004006461	14	-0.7055825194660009	0.046138999191121306	0.5747248286444044
Si	5.559197077396073	5.361803634837152	5.628179097249402	14	-0.31818045402109313	0.33740820804728855	-1.43446645222744
Si	6.932266978034818	6.617866266171236	7.007885035427481	14	-0.2623432455623733	1.3097398191522684	-0.5795752188308637
Si	8.13773187129121	8.157213966684466	5.5868881970046536	14	-0.49072013296133427	-0.4283235206098526	0.12463638727843424
Si	9.447128582108094	9.515373264457054	6.889779952505203	14	1.1971670580359692	-0.18716952532241574	0.35826038641475344
Si	8.391261275849539	5.365047919856383	8.236256547152985	14	0.2087521547113348	0.29878789214387624	-0.15111131587053103
Si	9.458663817732024	6.895301791149043	9.61932146729542	14	0.45714921079616083	-0.11040326244715852	0.1139920112530212
Si	5.4952944936839625	8.050726045775493	8.28800125468192	14	0.5299762832104192	1.1065237684162768	-0.5039299578751911
Si	6.6640399792227045	9.655385463898075	9.67470370651258	14	0.9413248522755903	-1.2992368539194636	-1.0815297964885853
Si	5.395016593089575	5.362885063176896	10.994996627116272	14	0.737739590815625	-0.13000151274998722	-0.3106741120389208
Si	6.641362754643843	6.734398362417526	12.403163792963054	14	1.653621813285158	-0.4655361563504839	-0.04676377778391729
Si	7.974714741713831	8.121920078141933	10.964110378322086	14	0.20612937017425173	0.6793261348261168	0.23664813321387737
Si	9.550257521052716	9.511391641933452	12.19181009365472	14	-0.6862532067796597	-0.019760229937998062	0.48087974156953156
Si	8.12231332481093	5.414056285980208	13.89899219544055	14	0.39240132262940375	0.5429547086454627	-1.3906733295304219
Si	9.576293727595932	6.632580245702897	15.276715514995766	14	0.5640724821924988	0.9958515683526304	-1.3131051389058102
Si	5.363507703736142	8.011778240266855	13.752917443185817	14	0.41754981798683616	0.9144115502264082	0.9936825839045538
Si	6.8040030228301	9.44807892822484	15.14594461227619	14	0.7082970924630133	-0.796963973423108	-1.3280846556115251
Si	5.564522292705415	10.824262031659815	0.0391116582873863	14	-1.0288352500626823	0.2671422136424297	0.5887854323086983
Si	6.793926076937037	12.308833748237255	1.338546120156331	14	1.090136057326717	-0.8632354986025847	0.5588027447283234
Si	8.130489578470506	13.7065798773556	-0.037702524390144904	14	0.8430875459823084	-0.8629915007077027	-0.06520760179799953
Si	9.432840619801183	15.115877627375749	1.4070693522291629	14	0.40502596397239493	-0.2877452519043723	-0.12582938014698297
Si	8.213857872297996	10.733159886675372	2.8775333445563134	14	-0.20756558960608645	1.4248422907930618	-1.1432846609521576
Si	9.650486265813479	12.064152393731375	4.205805895485082	14	-0.09902432163177916	0.8388611630570489	-0.6174249744698277
Si	5.333145783833952	13.489540486624675	2.672913994454562	14	-0.08319942549679975	0.1029126042074391	0.23926577554032014
Si	6.728008104046315	14.65094536767546	4.146245410409821	14	-0.4629619657039516	1.890143705227816	-1.1680536611643364
Si	5.416071675158821	10.941957482635223	5.489641572817122	14	1.170879820132243	-0.32258115788705854	-0.26241215118495326
Si	6.938624465850279	12.214864179624703	6.859532729548137	14	-0.8340462541240078	0.3241081373366945	0.12862777117743213
Si	8.221771961511573	13.52052504708611	5.3498259967106	14	0.7991496700557659	-0.3437848063517878	1.4801241405026295
Si	9.461940873307006	15.090496831947528	6.7066417016974444	14	0.1569672653477003	-0.272860094763907	0.3576461493537701
Si	8.227768973213786	10.853411440999261	8.309351271752913	14	-0.770450221140677	0.18646838490161136	0.14905391739334853
Si	9.495137446281552	12.347011445685771	9.578341887330295	14	-0.07707762372952717	0.05826895987051592	0.6065139748227152
Si	5.463081037381909	13.617755285995766	8.256197430326738	14	-0.07663462228286566	-0.8045045111060383	-0.8091420137719894
Si	6.843475157230734	14.946240845536908	9.51439014778456	14	-0.5606577972168102	0.33625506731120214	0.15721691967428666
Si	5.336471995242557	11.009350130534685	10.883183490897956	14	-0.04090011499078758	-0.5876770288051824	1.8151185948753632
Si	6.856845543976653	12.205065783455513	12.294414703707343	14	-0.20299005057835093	0.4942636303135624	-0.19112594218905962
Si	8.11669317449984	13.775578282486803	10.958359145787997	14	0.6557496132614229	-1.4066823168063238	0.27833577776422636
Si	9.600445627183534	15.024480547389556	12.260955966286797	14	-0.848880246268602	0.3035032993010278	0.2810518934244308
Si	8.195752140246233	10.801420954302204	13.696470160906786	14	-0.663478355853788	-0.6467610290621852	-0.5593948702835535
Si	9.560481934446653	12.094776478079563	14.980322223516701	14	-0.73348441151078	1.066146102026543	1.075553519282433
Si	5.407895421499246	13.629126668840946	13.520967449588731	14	0.5627025972779239	0.07964975749180331	0.8294059232422043
Si	6.824664858230349	15.054645843957248	14.967754715386652	14	-0.42007567185334965	-0.7195639330864342	-0.2851625766102835
Si	11.04033469099612	0.007094825319831701	0.03942297856700941	14	-2.1213192407677584	-0.35505653207531696	-0.29457230786096145
Si	12.268919211334	1.377690548999467	1.2957150037913423	14	-0.080078617859204	0.6726222348143627	1.4229301597664674
Si	13.704564488176986	2.61926859469214	0.06257537620424311	14	0.5996820337660178	1.3768518386609019	-0.6020752185980116
Si	15.065001339574184	4.17677118309076	1.4340231343333731	14	-0.4703209833512794	-0.2036706221565941	-0.4248653839542535
Si	13.741038116726514	0.054235269765919004	2.5503357306724355	14	-0.7881047158214738	0.5264333000792552	1.2138591879954346
Si	15.034852428284369	1.4751501817993722	3.9563564251176047	14	-0.16655543130759654	-0.6559164779967006	0.4488232004379253
Si	10.844809170114939	2.8726996875832183	2.6927237954053167	14	0.6714793784995569	-1.4070780099150946	0.7061255369096163
Si	12.30650703877902	4.130679396428666	4.14888344014768	14	-0.4608366900463173	0.4975775279607012	-0.2609628191159858
Si	11.03741811153439	-0.08790701579883851	5.320185029034906	14	-0.5057086485356695	0.5006764812030757	0.5434303631296901
Si	12.230675972773982	1.437332960464103	6.7552895917080225	14	1.0474803916233322	-0.7847946748323151	-0.2331565721891163
Si	13.744593722025368	2.8299013417739793	5.4539216670498405	14	-0.5562372958398798	-0.44466623735630995	0.1790777426588457
Si	15.061331037330206	4.254371859106286	6.785340191330589	14	-0.306476268382715	-0.012277027903707077	0.866295113933561
Si	13.663191661542864	-0.05901977090538981	8.05898422582444	14	-0.4335942865161562	0.16618004993085492	-0.08218461022693731
Si	14.87819278652245	1.6093128370390535	9.30539592849021	14	0.262356358199506	-0.3605103606804151	0.16697837813276087
Si	11.10028842274038	2.782646200382768	8.269158185125782	14	-0.6066399589834025	0.06858474863601403	-0.5453856887256626
Si	12.28019228251193	4.292746179889302	9.623630795376519	14	-1.0307520090788527	0.15141547762990457	0.40907905439907627
Si	10.845693975120184	0.022005428185990702	10.876399985857747	14	0.25956979425352955	-0.22926751828186034	-0.5459878415916414
Si	12.151780859806337	1.4676784950884179	12.13038168690172	14	-0.2126491790450832	0.10489724040406141	0.34696089275376674
Si	13.505483361996951	2.7990806340912924	10.873450635840264	14	1.3742370245503113	0.24326178742889432	0.03439598986240898
Si	14.955351060035353	4.1238631208327075	12.259284667943557	14	0.41174657616872995	0.22413713472603683	-0.3694436661152695
Si	13.421197492608465	0.1517440583994489	13.576185836027145	14	-1.0658540244621741	-0.360613719114285	-0.2036528815298851
Si	15.099246570332726	1.4489009666437824	14.90440923112229	14	-0.2630636692730788	0.9519376037055655	1.1612219772181709
Si	10.904730131303449	2.7350961239898077	13.656752247338028	14	0.4205320430476759	-0.07606435112285682	0.8302479602345528
Si	12.420712425567071	4.067464994387302	14.996969665837598	14	0.009611563018309566	-0.08049179448415181	0.1842117257621174
Si	11.053541224963292	5.306126460618242	0.15552905758855082	14	-0.17253556517172894	0.28494866064764723	-0.6965911070509111
Si	12.18917206391686	6.869036190715579	1.4198498689715846	14	0.0746055059642048	0.35670049681701965	0.6060519471966846
Si	13.587409751371451	8.040272238491307	-0.0413236708004978	14	0.15074801868879412	0.35650046482311215	0.00861140304877196
Si	14.913601372010108	9.383668400898607	1.3337452337389852	14	-0.46051247366544656	1.8417146225280387	-0.2808852857996852
Si	13.616837710434773	5.594409039549232	2.7608373955312757	14	0.08121221819485729	-0.8815661939825806	0.13097776144004747
Si	14.977684193778842	6.804232416720349	4.231596322860175	14	0.2766316491580322	0.29512072462574906	-1.1748341801146307
Si	10.836567375343865	8.315561292067501	2.9047492911065222	14	1.2162873398597824	-1.6927411807312107	0.3359588759783211
Si	12.343603307887792	9.573737624247446	4.18570115953258	14	-0.00019771799911938727	0.5054075721026803	-0.6040418570573929
Si	10.92866902227868	5.480023414704556	5.671436230839137	14	0.1948170209866642	-1.17763000003976	-0.5444114969198586
Si	12.30968578268675	6.826270615462089	6.953371215937689	14	-0.6829259393848561	1.233277460925853	-0.9515413963757305
Si	13.655179260662038	8.190885712717385	5.492787546169103	14	-0.32812574650995796	-0.12402009333319475	0.6589912628490656
Si	15.134655155820385	9.516929865855168	6.7240264815227135	14	-0.9178689155504113	0.0466424216128063	1.247327265947802
Si	13.580757328554242	5.585905080332159	8.246218796100925	14	2.116769927014288	-0.6669812297419577	0.4514207881428709
Si	15.021465656260574	7.073131211925333	9.601412358578154	14	-0.16573113494195704	-1.8955173153469258	-0.31116699292879324
Si	10.910661601894162	8.174664287621235	8.258950157009721	14	-0.30487729798411495	0.7947715919166176	0.2798840973880195
Si	12.13185636191046	9.716715558983823	9.652386958046966	14	1.3078580271684523	-0.6127185661812966	-0.23727985379103778
Si	10.808843485179535	5.612645853823997	11.074825700922785	14	0.6884856975291443	-0.33942935393945695	-0.43012020900757214
Si	12.309112297961127	6.913440293756558	12.365575965518033	14	0.252007145064846	-0.736402616049148	0.32312263266748176
Si	13.664699107107355	8.21269451756888	11.02113114532674	14	-0.6492033220057939	1.408767997442028	-0.17696763652260017
Si	15.190643650318917	9.544276894628377	12.268444038275627	14	-1.0001010912257715	1.1350573810382159	-0.07032435849562622
Si	13.822014159984269	5.591902092034373	13.737089264758664	14	-0.7565238291740949	-0.42278844507663793	-0.3889984647381878
Si	15.25010582372693	6.872100237678184	15.097509730877986	14	-0.8919696574394956	0.04291663289337973	-0.2120110307046225
Si	10.867797714973426	8.210335037554893	13.623064116027233	14	-0.10084723530376415	-0.2766442475741009	1.2391802045198488
Si	12.324416147496287	9.554173602464816	15.015304791779613	14	0.24959390561135503	-0.6584197061363968	-0.49523653656670646
Si	10.94877375823118	10.816364327724113	-0.034720403816913104	14	-0.35021822608386227	0.2794871187265886	0.9403072087898756
Si	12.073852478233313	12.30065749457768	1.4395285876993398	14	0.45968689174714694	-0.03156623134705401	-0.75091856246564
Si	13.552754888666039	13.627307902996833	0.1103548464874515	14	-0.976414012132311	0.4663277996785575	-1.1405868001397264
Si	14.935213553527102	15.090906463894402	1.2025646990725358	14	1.3448847719944366	-0.2787396984100216	0.04885665751451783
Si	13.589228517215565	11.04724927825933	2.6647377407949873	14	0.08467369728737266	-1.580472838484817	0.05488898481664924
Si	15.043667707781063	12.330937488090495	3.917621628221341	14	0.7219620030185363	-0.27866925012424953	-0.5800056218614565
Si	10.818248634679726	13.696601243129786	2.8060771477438746	14	-0.401729292730901	-0.13627603817327663	-0.0559855612356924
Si	12.45381068687437	14.965772096763791	3.9671379379592886	14	-0.4620078285196446	0.3798430158036725	-0.20022097014855145
Si	10.992096432932415	10.821886166367955	5.631177603100508	14	0.25417587240239087	0.24543360009282336	0.29235215841701356
Si	12.473325552823377	12.26798525049513	6.87459079991517	14	-1.2087714847879254	0.6835386337826473	-0.6256365706413166
Si	13.781034580019146	13.587082045813954	5.270357399017335	14	-1.0573714337899418	0.2746233587924645	1.2799826175084708
Si	15.070048005159652	15.025283426005426	6.580098200669592	14	-0.6422600520887339	-0.1614559010156148	0.9643735259180578
Si	13.757996879327035	10.932683415358028	8.21982211344446	14	-0.28364742424512024	-0.9802074209216577	0.2809325941375759
Si	15.005457239776797	12.455465599939735	9.47345972365306	14	0.37467329433645075	0.23745314628961578	-0.15370684669122053
Si	10.765602736867672	13.61485509181191	8.115464278659221	14	0.9284405292952641	0.20924966359078342	-0.6519186663344023
Si	12.159940728188039	14.961806859518063	9.47259130392569	14	0.4781957647258289	0.6255725501188449	0.07164796351443846
Si	10.883740590345703	11.123637443712115	11.083853989031857	14	-0.7123455549001184	-1.0418100759502775	-1.3637158044697333
Si	12.297003577611578	12.294480244818843	12.36388828189692	14	0.9334953223546752	-0.2930121611526956	1.224444171487952
Si	13.538811017194499	13.625849613265967	10.940286184291983	14	-0.5175529594139957	0.2644703209937318	-1.5745166159001618
Si	14.92554623958091	15.17065361131154	12.000266195297137	14	1.1290227397412964	0.8301656848643082	-2.8790190935152893
Si	13.821932233594897	10.891408900391156	13.751409997621325	14	-0.6364416407492389	0.46929922609705255	-0.7520889296073714
Si	14.985696594659668	12.548091575766545	15.003196071430061	14	0.3148770979057669	-1.4836936060185912	0.018755699089416204
Si	10.735584907800856	13.516903900675757	13.6038277998021	14	0.88818781862409	0.5358736274832429	0.22807118297639542
Si	12.048832158918342	15.010634987585265	14.905605356407158	14	1.362754725301062	-0.7771019277144321	0.49068259482366017
H	2.699372941166951	14.108505828043533	14.080169128486682	1	-0.1920088597559985	0.17001716751064389	-0.18910145385997504
H	14.13749302313202	14.314160727706978	12.796902020296901	1	-1.5099852148013615	-2.00762239240549	1.7581734971341911
H	12.279795758787358	-0.7305753001915289	12.67273438456091	1	0.260220026788995	-0.15875109821881903	0.007709202191932
H	0.8960485829223565	-0.5473174368552848	-2.4458140431084487	1	-0.8230246969481289	1.6916204359221583	-2.2781386675595505
H	14.866780440482582	1.4676784950884179	12.13038168690172	1	0.05960336353167277	-0.1016399070739658	0.03371413273150572
H	17.849654736496625	9.516929865855168	6.7240264815227135	1	0.22953182790877155	-0.10978722561245104	-0.11800344977351623
H	12.279430367090747	3.8839662674662963	6.872133008233934	1	-0.03333489469678388	-0.13849413073296837	0.2072681127205453
