223
config_type=interstitial dft_energy=-23323.810026496743 dft_virial="13.57524096555844 3.0050518531316515 -4.9720683215121815 3.005051853131651 8.582977403097795 0.6624039031096651 -4.9720683215121815 0.6624039031096651 15.122196422210889" pbc="T T T" Lattice="16.3852778749 0.0 0.0 0.0 16.3852778749 0.0 0.0 0.0 16.3852778749" Properties=species:S:1:pos:R:3:Z:I:1:dft_force:R:3
Si	-0.4080098043628849	-0.49388504570523584	-2.1474217477286444	14	-0.9284122471367425	-0.91544796278096	-1.0176866802839883
Si	-0.18149972302026732	0.08377792577436372	0.1536283653550624	14	0.12454254193424884	-0.34858505998450423	-0.718501809478681
Si	1.3969924063360992	1.376854899827847	1.5989409561442418	14	0.21731470675902392	0.38582572077312505	-0.20960113368804767
Si	2.6933464359645627	2.771962999208333	0.1282639552047172	14	0.2569333828582497	-0.344275630357404	-0.8065058594872416
Si	4.37657326149729	3.922373358805062	1.3660078458746634	14	-2.1908452710614785	0.6806101448229988	0.1163515146053211
Si	2.7756005308965603	-0.0977217972459036	2.7802539498130323	14	-0.28414596156669697	0.7193554164449703	0.9540865335321452
Si	4.029762469997157	1.3774775403870934	4.232939915645916	14	-0.1544375548232066	-0.48883037055102546	0.025562186203444213
Si	0.0012780516742422001	2.6861205284217315	2.9627695600615436	14	-0.199883641130548	0.7389305267999177	-0.6124079766586228
Si	1.3866041401634128	4.113540395771521	4.2227318875298545	14	0.21215886926053096	-0.6428958864344066	-0.1064753848495683
Si	-0.07132511458943971	0.0158281784271534	5.595982026225223	14	0.06307589837706477	-0.20439490252527984	0.38673126406688124
Si	1.2373342587230736	1.3713494464618807	6.96638112657036	14	0.20255142001073365	-0.13943978326971884	0.5927847866341885
Si	2.6424537628851232	2.6821716764538808	5.640353358710453	14	0.08032441552781017	0.25892059016019214	-0.765207994503427
Si	4.062352787690333	4.050784781510654	6.869888225165073	14	0.5561897303914569	0.1957914699030003	-0.5822082877892274
Si	2.6845639270236163	-0.1076185050823432	8.246382648879672	14	-0.5359224784843256	-0.0266140253899168	0.2221933791040049
Si	3.999859337875464	1.2203427255668025	9.657548320577561	14	0.32185147819720056	0.6005469535957155	-1.1523591200690886
Si	-0.1306398204965777	2.760018131637531	8.349609899491544	14	0.2710855178719408	-0.4976970843580882	-1.3055247490904178
Si	1.2934866060003558	3.9534562309337473	9.643964925219267	14	0.6422867915840635	1.4887196026984166	-0.7766776953366076
Si	-0.09967164531301671	-0.22860739691060483	11.01100504360005	14	0.33530530100593947	0.6587660340230207	-0.19213715791147387
Si	1.3571270252664676	1.1879162606523752	12.300575568188306	14	-0.4607058207855217	1.0567587393921503	-0.04879572231843032
Si	2.6922650076248194	2.70116221351089	10.88750920425693	14	0.48682747950663013	-0.9482704361874382	1.2330627736316204
Si	4.196957845432636	3.964450752387805	12.233248461400342	14	-0.34358451724734823	1.0145887554837418	-0.7484657279902188
Si	2.736390560941925	-0.1515474350649501	13.631486148854933	14	0.837822693618241	0.34225654134949174	0.0038314611480846678
Si	3.953783936491245	1.372758580359122	14.999001440294087	14	0.13005396329851826	-0.5383120637688713	0.6587570351544001
Si	-0.116663178469288	2.772831418935702	13.645937963940595	14	0.5596193277780025	-0.05081326866315052	-0.9666163010888229
Si	1.3984179255112157	4.078901918343981	14.967033763160158	14	-0.5843258501309014	-0.09989849744062951	0.6234984394570815
Si	0.06055998702563041	5.558459739891703	-0.0872679899617174	14	0.045574384462816794	-1.1867509961629852	0.549820074071322
Si	1.4522927191638868	6.76143407091111	1.3411022235048153	14	0.1818589072836499	0.2713086898137296	0.1443873612372798
Si	2.636800842018283	8.263538034814692	-0.10186727254825331	14	0.3846350418993645	0.1874911705979663	1.2056087681336112
Si	4.038446667270853	9.660923687819789	1.3519165069022494	14	0.07872030291856978	-0.24505333361597345	-0.20070048129075901
Si	2.817743465590804	5.263147876752379	2.7556432624449325	14	0.7997466807111043	0.3795290838440824	-0.29862282718232275
Si	4.222256714471483	6.802987135601857	3.944165778378679	14	-1.1503942813834311	0.1390278921974311	0.6719408919045234
Si	0.0626081467599929	8.113973218372607	2.7170887036052926	14	-0.6684133354052803	0.3335080983871559	-0.39159913776951755
Si	1.3275188281465231	9.561596133342146	4.060550407124094	14	0.7541378434369974	0.18231116470946393	0.41679442724377663
Si	-0.023742267640730102	5.3817772885666555	5.535962753369464	14	-0.4517825426614157	0.49482387416282264	-0.8152733286289463
Si	1.2115766019037308	6.761188291742987	6.824238841005602	14	1.2214987132331905	0.6585006959539813	0.6767825403328943
Si	2.663771009400368	8.026082587851644	5.404388972034018	14	0.14326173132811895	0.3596444124085892	-0.5210334646858802
Si	4.040003268668969	9.521173652824768	6.627074792336931	14	-0.1780672982680275	0.4990525710828702	0.17860928726951475
Si	2.6695713977680824	5.385742525812381	8.154788945558982	14	-0.5636688186572356	0.13502699520874867	0.6237072132090775
Si	4.070807591073781	6.824501005451601	9.417930016935022	14	0.6305499529081195	-0.1460025295993968	-0.1374343211200033
Si	0.015598784536904803	8.246562886936298	8.267830977617916	14	0.38827572703269414	-0.851676323304263	0.12819016905194291
Si	1.502087578625708	9.60788454333874	9.538247112370414	14	-0.11022894150645246	-1.258474807284368	0.5266181625517738
Si	0.026314756267089404	5.440207189468548	10.900469959055975	14	0.5884794707756006	0.7649215733707625	-0.17721831929131462
Si	1.5243224007019471	6.7431153302469715	12.285402800876147	14	-1.3322326198245198	0.1635703780309046	-0.6477200513466005
Si	2.8326868390127125	8.090411188788499	10.904238572967202	14	0.002634354511023722	1.555852962381207	0.17921118302496142
Si	4.074199343593886	9.822646380445054	12.275653560540581	14	-0.2877131130878704	-1.9673812517082565	0.10715827042259962
Si	2.7463200393341145	5.3136964589964455	13.541580129155356	14	1.1850365831355103	0.4206258883918613	0.7232524407787186
Si	3.990994902545143	6.996661120083175	14.940784548004569	14	-0.2981777688514051	-2.015322852839333	0.07181225714439593
Si	0.0048008864173457	7.999210732136806	13.618689246834634	14	1.7227866032813974	1.494142835150205	-0.5079943611652812
Si	1.3540465930259864	9.576588662597679	14.879257829584317	14	-0.40671055217815594	-0.06543591595042868	0.34328472636701896
Si	0.19039692890633803	10.93800863066737	0.047205985557586906	14	-1.491682544469355	-0.45648689406569065	-0.45534558041407697
Si	1.3409056001703166	12.381436914500936	1.4629759203383217	14	0.7614444105357943	0.15648801131602472	0.2543185687476591
Si	2.8775333445563134	13.723866345513619	0.1457962025308602	14	-0.40259575522379093	-0.3796524968994495	0.22939787332159184
Si	4.258140473017513	15.138407384453737	1.5086744603314177	14	0.41639642014021777	-1.2925244692601532	-0.4450717006652972
Si	2.824313962018638	11.026734910359954	2.8251004553566332	14	-0.6913889896566555	0.08171872594292648	0.16691512894188523
Si	4.156092962412635	12.463281377486062	4.295990464908531	14	0.09035866826075208	-1.4998766571246671	-1.4573631735454866
Si	-0.1623289479066343	13.638974220843762	2.8410269454510364	14	1.8236001571054676	0.2862339561971893	0.2510396381328743
Si	1.3336960779053604	15.09739503393286	4.226254722272957	14	-0.17734738877838604	-1.0032440103691203	-0.6159712715218161
Si	0.10878185981146112	10.98295344787822	5.560016341289818	14	-0.7959381024003689	-0.5781220301039162	-0.5228252679834914
Si	1.3338271601283598	12.410586323840382	6.936232215280544	14	0.40899086548659525	-0.9893492429979761	0.032076595753103405
Si	2.713975500809062	13.642333202808118	5.533242797242231	14	-0.5778101550285821	1.265387223937586	0.42274473628619536
Si	4.088094059231801	15.082222266620704	6.797760231959764	14	0.018165116197378192	-0.6988148560423072	0.8801430871878786
Si	2.7702589303093434	10.90363231768583	8.140484597974194	14	0.39468189304837514	0.6093946412234093	-0.6933628272109331
Si	4.17680395364651	12.345176294563782	9.407148504093339	14	-0.6876413465420076	-0.7736201368898875	0.63510569442489
Si	-0.1589208101086551	13.526292664898074	8.305386034507189	14	0.26239183945292405	0.6495367943658171	-0.4333515741739343
Si	1.282983642882545	14.815388016427958	9.5895658026746	14	0.33159519602896576	0.9998218691880033	0.038402543282795736
Si	0.22826330607523193	10.81595469577724	11.044218001852473	14	-1.0050885213257945	0.498719870054443	-0.19777096388898233
Si	1.4294188712505262	12.436507833438476	12.238245971152187	14	0.06708245179745151	-0.5474680269244505	0.40367330546346497
Si	2.8877086021166267	13.66876265602033	10.871533558328903	14	0.5302650183378719	0.8595377349311479	-0.17451145961026274
Si	4.330284851500697	15.049992425040776	12.316485673004834	14	-0.5055212149578308	0.2900232512180234	-0.9428556883832063
Si	2.692674639571692	11.084214465145104	13.677266615237404	14	-0.01184456798885817	-0.23627043784234764	-0.2605563273648704
Si	4.129778206145546	12.371376353885747	14.979732353513205	14	-0.05875181344963972	0.43284352376267293	0.6654480796395534
Si	-0.1632956793012534	13.378218908742603	13.692652391161934	14	1.0486821262499693	0.23949511813487734	0.7195585337652619
Si	1.4307624640362682	15.042160262216573	15.209748884321051	14	1.2609494961550105	-0.9688642184702283	0.45484627176090414
Si	5.489264711425999	0.038013844669768	-0.023398176805357204	14	-0.5988569660687822	-0.013690621608724491	-0.6080342693985188
Si	6.805248303948593	1.285638057898279	1.3466404474265314	14	0.7308477430049681	0.44266231786978644	1.2089684314554487
Si	8.1066653844404	2.808682406925984	0.06003565813363361	14	0.22185219342802123	-1.1542308847421563	-0.6764171862669012
Si	9.461777020528254	4.155666945187888	1.2888331870838845	14	1.368588049051414	-0.15398195496047637	0.41206436478630026
Si	8.237075811046731	-0.10714333202397111	2.7899376490370984	14	0.8309676126136624	1.2742539377446487	-1.052167516621962
Si	9.515340493901304	1.4875702224285465	4.177639602818129	14	0.5041988954916786	-0.7628698313252843	-0.8981469950816834
Si	5.4498908886926145	2.6374562531332786	2.8900189262969875	14	0.8226932814723619	-0.29398558162690364	-0.2028373269223341
Si	6.8491116928197	4.139773225649235	4.010362300993275	14	-0.14045434142904925	-0.317119358855468	1.0700048168910214
Si	5.493721507007972	0.015500472869655401	5.578072917507957	14	-0.10907425810717397	0.9512901993859523	-0.6422309985986164
Si	6.938673621683904	1.3797878645674544	6.865316732637976	14	-0.2505218175213964	0.07556889912766428	-0.5951440328759564
Si	8.237436287159978	2.8675383250526245	5.512187715172985	14	-0.6614857492306733	0.04553118989343831	-0.05964372988519909
Si	9.486240240395482	4.2973832135278975	6.897874279775403	14	-0.10477485579082235	-0.04665579136047108	-0.7730825187674446
Si	8.20845073059928	-0.18231898691401233	8.014367114171089	14	1.152786437773297	1.0805386353876678	0.6273424990212348
Si	9.60521374304513	1.2568327393942045	9.462301349420253	14	-1.154924826068064	0.0823391336566782	0.4468460204467315
Si	5.362442660674273	2.5275929649820745	8.107124172220898	14	-0.05868342204812378	0.9002730420709139	1.148793511211107
Si	6.641690460201342	4.152111339889035	9.44721050849747	14	1.536734223220586	-2.7164280495008284	-0.914128728641192
Si	5.6757127883644864	0.0504338852989422	10.699307902585828	14	-0.7195842448184634	0.022513369514812625	2.5094962373561587
Si	7.007262394868235	1.3297308406596349	12.325628658059026	14	-1.036659380662425	0.3567524331444866	-0.18192164225346152
Si	8.175827642350352	2.742666122368012	10.82170592831133	14	0.007952942976282039	-0.058751042118043675	-0.3836091708766254
Si	9.549634880493468	4.1238467355548325	12.164872696828382	14	0.6771023858347207	-0.42918072712359	-0.5012655214319217
Si	8.410415665685298	-0.039455749122759204	13.667140513510716	14	-0.9894788267061116	0.612795442230369	0.632916398244784
Si	9.633707741269582	1.493403381352011	15.01271591787538	14	-0.2583693451795524	-0.11530507474002082	0.2727443950245003
Si	5.386692871929125	2.705012753811492	13.729879742493708	14	1.1762575440198648	-0.810420367337167	-0.41352115306069614
Si	6.776705149890517	4.079786723349226	15.046649828354296	14	-0.24645895689449843	0.9842638537852554	-0.832262421252889
Si	5.284104647154376	5.49083769810199	-0.046419492219591706	14	0.674868609532576	0.30527119131916164	-0.8322963598431149
Si	6.620602607576345	6.826680247408961	1.318031752256956	14	0.9866228429164913	0.12641790615476486	0.2439750120447034
Si	8.055789096638836	8.2749585734935	0.09521484973104391	14	0.015545416986679318	-1.128250122592592	-1.1920153343059883
Si	9.593432728253077	9.443491050419865	1.3333847576257376	14	0.24622370075770486	0.19236135829539078	0.6271301257217906
Si	8.132226417925244	5.448104893404251	2.6085853935177052	14	-0.4670040003777564	0.99667200806029	0.3392987417891934
Si	9.489287902080212	6.85492846646529	3.9755927413427368	14	0.4606682826478475	-0.6182076189292807	0.18833320759031477
Si	5.492066593942607	8.333421244951142	2.708093186051973	14	-0.13955805411444566	0.03948446440151405	0.15120207588833226
Si	6.932463601369316	9.616699822835434	4.164170904404961	14	0.3434397640178239	-0.015015769290728809	-1.3417981600575988
Si	5.463982227665029	5.492164905609857	5.4349311299928305	14	-0.021811971983476227	-0.5392572020845577	-0.08533549979677878
Si	6.857419028702275	6.962841906549381	6.750554246402177	14	-0.2917757166042364	-0.5187431240666922	0.22971051972852188
Si	8.318166551249611	8.244907973870932	5.447252858954756	14	-0.3280432140291812	0.013015192241121592	0.13664293490246177
Si	9.573393533412075	9.6101948675191	6.902871789527247	14	-0.4065182335002088	0.35738029706366675	-0.2347357450767513
Si	8.04459795185028	5.532947862240483	8.242073320798575	14	-0.5092673154092866	-0.10091151293676784	-1.0967430266679012
Si	9.44293395097212	6.771412705136925	9.471411563918696	14	1.332562235526563	1.0583705653173512	1.0864488351870922
Si	5.425870071328012	8.330357197988535	8.043811458512284	14	-0.05423335296001149	-0.8511872990723709	0.395582294131491
Si	6.835003968569411	9.626170513447128	9.386175348413467	14	-0.5099995662044646	0.175557385254499	1.0617489977080259
Si	5.526672300814396	5.450382447028862	10.742007936727816	14	-2.106258991354991	1.2020729840973436	1.8199741272724625
Si	6.748489701389939	6.9068697973287225	12.133478504420076	14	0.12569568267033526	0.3588108600637972	0.12545142766492118
Si	8.20995817616377	8.334797608292634	10.819690539132718	14	-0.3833181217543847	-0.727253851988465	0.17821719370819214
Si	9.474344528658305	9.655565701954698	12.3055403073844	14	0.2503804067287883	-0.5564105883384576	0.12583657924187938
Si	8.088412184887762	5.411631264854723	13.380791397368963	14	-0.21657525686894935	0.5137721490407179	1.768789333890551
Si	9.378277644477764	6.890828610289195	14.890661982985248	14	-0.4034048820680415	-0.043466592321359396	0.33104909325896625
Si	5.38025345772429	8.254968534486121	13.664240319326858	14	0.5813721643391153	0.5314204730687463	-1.263075028923177
Si	6.778982703515128	9.573213295355451	15.005490010332547	14	-0.147238717037324	0.8159289604855843	0.5878351517823714
Si	5.4198566743479235	11.062405660293612	0.05176109280680911	14	0.15160625364465952	-0.8386400479995162	-0.5472124590556279
Si	6.836675266912651	12.295659984825836	1.4409704921523308	14	-0.18872041605152906	-0.3732553297523891	0.5002422215145028
Si	8.156345546957096	13.519115913188868	0.0400292338483807	14	0.6322376264402647	1.874551751234842	0.17124744140633474
Si	9.737000532992951	14.975160860986106	1.2930442034977336	14	-1.5942081973261122	0.37727293892565245	0.21853161090705
Si	8.338009122756114	10.919739045836858	2.6477789781944656	14	-0.7878779443322366	-0.1401872035862859	0.5642568304439535
Si	9.538607588483663	12.427004372271034	3.970136443810395	14	-0.3150730161311622	-1.1982628631234162	1.2021431752725835
Si	5.616824099682096	13.67120406242369	2.959377807541439	14	-0.5836676471689435	0.5619654613826376	-1.0600510397546001
Si	6.873673224354175	15.160937141531724	4.206690700490327	14	-0.3127502795849404	-0.3971033600388906	-0.08823262127152164
Si	5.5326037714051095	10.942694820139593	5.3935255328029585	14	-0.5958803974396468	0.28914084787214867	1.025086064284842
Si	6.747785134441319	12.422695044189934	6.826073992127592	14	0.68299278812318	-0.7824344001484191	-0.5139701241503694
Si	8.144138514940297	13.731682123059946	5.449301018689118	14	0.8480191830968844	-0.7247333974431239	0.08243709276937584
Si	9.681601908497912	14.907325810584023	6.781604347975112	14	0.03411702493517292	0.11852255593765412	0.03245197712984502
Si	8.146940397456905	11.066485594484462	8.156411088068596	14	0.4025528177649444	-0.12744557695122802	-0.34208967661421413
Si	9.595775822989188	12.232363656395098	9.601117423576406	14	0.2801892875895211	0.10637279774729438	-0.9483853645952489
Si	5.52849106665851	13.751541079844324	8.242876199414445	14	-0.7392058921797054	0.7491720106216635	-0.5204912185738609
Si	6.983438200838131	15.039702470535339	9.522894107001632	14	0.031056895383132672	-0.7916060470464514	-0.25045316900934844
Si	5.4207250940752925	10.998290067969128	10.861800703271212	14	0.6164178725159257	-0.28811934772845377	-0.8718137343927268
Si	6.705855208359449	12.390022800107383	12.166462068782248	14	1.2450220129177572	-0.33127149386915916	1.043326256757569
Si	8.267142795947171	13.611430568736054	10.861669621048213	14	-0.4359615031844165	0.2511095721975823	0.7479461076050168
Si	9.552535074677326	14.865330343390653	12.384894208132541	14	0.5001062100430669	0.7679413365692764	-1.1933217129191558
Si	8.153199573605116	11.004172382726217	13.710086326820829	14	-0.6664533818197313	0.07500659839414789	-0.92559045904788
Si	9.538558432650037	12.301280135136926	15.071113048221521	14	-0.04715844245056002	-0.4408139502551321	-0.49506041585227634
Si	5.596113108448222	13.744577336747493	13.741922921731758	14	-0.36623312690200066	-0.43605843385498616	-0.5316073924255211
Si	6.9433270406003755	15.075832008249494	15.055776428130615	14	0.2843107694177185	-0.04915516284218702	0.37518031630558396
Si	11.004074071058968	0.14240445001075594	0.03973429884663251	14	-0.5214199018154985	-0.6925200188869887	-0.426176390556997
Si	12.363380338282798	1.3300421609392576	1.4331710998838785	14	-0.2918525926533088	1.433455493615558	0.011699814759333833
Si	13.529078162136807	2.866178346989008	-0.009093829220569501	14	0.13362214326181976	-0.11875241275327537	0.24178340186980918
Si	15.14253647447821	4.071348305243653	1.3511955546757537	14	-0.09841522678143609	-0.17417387348172728	-0.10221660599727503
Si	13.628274634391452	0.028739777392574602	2.840830322116538	14	-0.09500594112691972	-0.31475754150838003	0.44899263627852304
Si	14.974308826536614	1.3543415280277344	4.281718887879494	14	0.009698209267598555	-0.29272085491992283	-0.7976352890221986
Si	10.92580159865057	2.807338814140242	2.7071592252131036	14	-0.18837717349128932	-0.2750087674799547	0.08249854218652738
Si	12.342046706489677	4.145786622629323	4.083227631702956	14	-0.6356055172991267	-0.30966983830087097	0.01928431834323865
Si	10.935403371485261	0.05942940285226231	5.476484194683577	14	-0.39465823887942975	-0.2895028595012255	-0.3026268094973893
Si	12.212291690998343	1.452751506944384	6.848423511148955	14	-0.3078032158384435	0.18929762919590232	0.25145461453154616
Si	13.633616234978671	2.728574783395598	5.508173322093635	14	0.18264643684321127	0.835735727429877	0.9324604524633157
Si	15.016255137896357	4.214309854702155	6.944932797832116	14	-0.8304901583557109	-1.3373768873490723	-0.04909345631450346
Si	13.608055201493826	0.08687474329271981	8.161326671431066	14	0.7721440653255905	0.28623112798133704	0.5969317224050554
Si	15.050025195596525	1.403743140820558	9.723367981801033	14	-0.5067250064687241	-1.5883890146550208	-0.6160394058127999
Si	10.6958669942321	2.8453854293657597	8.173713941504491	14	1.235955524227319	-1.0121397776663008	-0.24411565150571551
Si	12.209522579037486	4.001694488997453	9.498332575467156	14	-0.036942669682015664	0.15489546868072496	0.05289766374619457
Si	10.918346297217491	0.0330163349179235	11.04123588127924	14	-1.3240099679001545	-1.8511914596275727	-1.402846999000259
Si	12.277324858883823	1.2678600314040123	12.208359224308367	14	1.0682191842461786	2.050019919134732	0.7070485637195494
Si	13.609562647058317	2.7597068113579075	10.840401530366591	14	-0.3785106690267718	-0.5017874558119118	0.8822213116181541
Si	14.962740820356935	4.182817350626597	12.105181129530123	14	-0.3120581380327565	-0.6067464027436567	1.6153604236844383
Si	13.559456467316872	-0.08040255853213431	13.600239423947498	14	-0.6694453770807877	-0.5892122357918428	0.667818124523666
Si	14.78155241761629	1.4346457748926194	14.888335273527012	14	-0.13498071531298603	1.4285328553696022	1.2473900009176135
Si	10.97074641586142	2.7495970949090944	13.52367102043809	14	-0.11670632713950152	0.6136868444448644	0.6776587730260007
Si	12.143834000037012	4.329514743440577	15.003146915596437	14	0.39567639658620835	-1.263089684223502	-0.38687267485948934
Si	10.75796719737797	5.640943228713948	-0.023742267640730102	14	-0.7172957039729996	-0.8561654731932414	-0.8425347583384765
Si	12.35158293821287	6.715063734525144	1.1485260526411156	14	0.09158277150367458	0.3986951313425942	1.8188163585468
Si	13.665075968498478	8.0494152235455	-0.1575280614892886	14	0.32434236503136	1.7940638134086702	0.34655414389211925
Si	15.003671244488434	9.574376650084567	1.2922577101597386	14	0.2654326857150632	-0.7655149844786527	0.4690392873491856
Si	13.687507413909216	5.414433147371331	2.674831071965926	14	0.21925769104945983	0.23013012411676997	-0.30887793786226536
Si	15.055710887019115	6.747096952770573	4.095385507886131	14	-0.24892284712279636	0.46304989750590064	0.012465747034205946
Si	11.01585508585102	8.057149074702453	2.6686210516513387	14	-0.15200554630087856	0.012989224077388097	-0.6106274862244202
Si	12.218141235199683	9.416799432761655	4.11437604494314	14	0.4035249526864924	0.23435342171564524	0.29005744691878144
Si	10.896127860419126	5.50719020542114	5.407928192054996	14	0.20316874239810118	0.3061070576587418	0.07259593004597706
Si	12.31302837937323	6.8760490896460364	6.79848118418626	14	-0.4778242400070676	-0.7995420207276205	0.6413946180379723
Si	13.698764099809273	8.179530715150081	5.517644012705326	14	0.39920883818555986	-0.1766886715953641	-0.8023807781115959
Si	15.102916872576703	9.479358423688023	6.874148397412548	14	0.26539026247728076	0.5591590999256959	-1.1184338995907988
Si	13.59656912170352	5.42931097968174	8.333404859673267	14	-0.37024765074887983	0.7007149028738966	-1.340881818121498
Si	15.013436870101874	6.779769196853123	9.547455638536107	14	0.6288591940495902	0.3746185297931316	0.39834931767703435
Si	10.874794228626007	8.179334091815582	8.161769073933689	14	0.7688342814469639	-0.2270409410746121	0.8627662718816578
Si	12.416911041100095	9.388485672593829	9.701559176949543	14	-0.6463445100003213	0.515925449746342	-1.0825181293736499
Si	11.005171884676585	5.468340711579752	10.812825107703135	14	-0.9149278281746939	0.370041962323268	0.4615545426517026
Si	12.33105218503562	6.788715558572819	12.28343656753116	14	-1.0545167355529814	0.9221474919136697	-0.14389859411591965
Si	13.833664092553324	8.098128654667578	11.073416567025545	14	-0.624444606214896	0.060416347033903584	-0.6907109891837324
Si	15.153023052318147	9.467823188064093	12.359955815206943	14	-0.7111065392463392	1.0256262535126055	0.15382357487275522
Si	13.638220498061518	5.516300419919585	13.606007041759463	14	0.43716220936892575	-0.9449732507248804	0.30980842087762694
Si	15.087531096652171	6.798792504465882	14.910979727550124	14	-1.0239372944278002	-0.7897085713201821	0.7295359650706285
Si	10.862210335218084	8.218363823713593	13.652688698425054	14	-0.17523188332096823	-0.3354819359414336	-0.8516125598923233
Si	12.189483384196482	9.527219820360607	15.02292394599144	14	0.49795188089531484	-0.8031508241549803	-0.11350170146846895
Si	10.823655776378445	10.821738698867081	-0.060232281468132406	14	0.23774265274866446	0.40217820771979884	0.2594715780302999
Si	12.27778364666432	12.172541006873836	1.1951093976394564	14	0.10113185666270454	-0.002552079140778983	1.8465318454558681
Si	13.75904553711103	13.614691239033162	0.10812644869646511	14	-0.42741566332130837	0.030880517558170523	-0.5283603435167062
Si	14.977618652667342	15.029265048529027	1.5494738022399186	14	-0.49843653424816275	-0.0024975717079918436	-0.5777867579701688
Si	13.583231505513352	10.809580822683905	2.8462538490931295	14	0.3693256523810748	0.6141617275974958	-1.1628312320380514
Si	14.974030276812739	12.273113842469972	4.182686268403598	14	-0.40787937665669527	-0.6722003164313264	0.32260815449292013
Si	10.963995681376963	13.626341171602215	2.686612086757979	14	0.7181125441332107	-0.48329452368621456	-0.92382051014549
Si	12.18124158942541	14.960070020063325	4.084833388934696	14	0.8630002424657912	1.079581412876977	0.34791785815392584
Si	10.864012715784323	10.840352374532968	5.414826394040329	14	-0.13419292864289262	1.040448161462195	-0.49053244227296344
Si	12.244062744797775	12.303590459317288	6.656535521956	14	0.8519002665776481	-0.8869092079483802	1.2316764336429964
Si	13.654933481493915	13.761601640459514	5.483054691111413	14	-0.567444229709341	-0.9598545512073654	-0.640368232794169
Si	14.955285518923853	14.960266643397825	6.8963340636551616	14	0.3067899432317731	0.7028836302114415	0.5919517485104606
Si	13.755489931812177	10.758393214602718	8.14939818913814	14	-1.421808643625819	1.1133156002299798	0.772916425363763
Si	15.094134363635757	12.0925972361222	9.663725570336398	14	-0.6534345900311616	-0.7409581004553863	-0.0612586411367841
Si	11.038515925152007	13.574432611294531	8.238239165775846	14	-0.4152432794041313	0.276350370236008	-0.015184948020794556
Si	12.314191734102346	15.062445236225699	9.637443584625057	14	-0.05923672391301965	-0.22779658892820362	-0.45308789283245493
Si	10.897602535427868	10.83674761340049	10.89711097709162	14	0.5987281536922429	-0.16274736721792518	0.2665295192446384
Si	12.148438263119859	12.240425213109548	12.34509436817441	14	0.18456293874884963	0.4722377423674498	-1.2259606094057756
Si	13.606351132594835	13.485362240766575	10.860014707982847	14	-0.4703515795045892	-0.2148976106475527	-0.3175037391008302
Si	14.882600426270796	14.70524617855288	12.373031266951113	14	-0.6821517795729596	0.46559477755178325	-0.5820090271269159
Si	13.420329072881097	10.88547742980044	13.620295004066376	14	1.912520291939597	-0.9456497085346113	0.1771463283423505
Si	14.864674932275657	12.071820703776826	15.079518695771347	14	0.7478255227655018	0.2908629742155838	0.4161115416707453
Si	10.921672508626095	13.635746321102408	13.723718878012745	14	0.3935140970119639	-0.01980033918099237	0.7510304055470665
Si	12.281945507244544	14.954417099196483	15.198705207033369	14	0.2924388046663026	0.4042973127246649	-0.8184591852311419
H	-0.03077810596021216	0.4681617979694303	1.6847719572363304	1	0.1518384244550689	0.26074916026388145	0.9722377657607947
H	0.6964726213504995	0.6105973800081486	-2.1474217477286444	1	-0.18614108319435652	0.07515700805537656	-0.5816480439399672
H	13.932419800833134	13.722275335031966	13.29545850872427	1	0.0308663764789097	0.1467733469743772	0.32115393732384434
H	4.101603720839655	4.113540395771521	4.2227318875298545	1	-0.016671561116904175	0.11332789474882696	-0.07635077225552131
H	3.997983223558788	14.815388016427958	9.5895658026746	1	-0.16168524361017203	-0.06795611338523784	0.1113820822425389
H	14.927291271674587	1.452751506944384	6.848423511148955	1	-0.1140146369798385	-0.08598084723213593	0.0653235586479382
