72
config_type=liquid dft_energy=-6926.044782257079 dft_virial="128.06636162794888 10.32415516082718 4.260323507397505 10.32415516082718 104.96382843387893 0.6403447705844931 4.260323507397505 0.6403447705844931 104.64668061902805" pbc="T T T" Lattice="9.799987616100001 0.0 0.0 0.0 9.799987616100001 0.0 0.0 0.0 9.799987616100001" Properties=species:S:1:pos:R:3:Z:I:1:dft_force:R:3
Si	33.71004640179886	26.151707953005577	-9.892940498638708	14	-0.031894304385904904	-0.4238487689106669	0.553811200859788
Si	27.30993908938959	7.855209473647804	12.06738135087421	14	0.6609069934231079	-0.8427101077213107	0.5663800492173318
Si	1.8882126139320679	-7.524871491084305	9.284498467505525	14	0.7729593628226095	-2.06262244897197	0.6371435525016393
Si	29.012432138008947	6.7806604315176715	38.97244375189224	14	-0.6052703311793596	-1.1291631220917764	-0.18443849725135447
Si	19.880980077104056	7.594167203517749	-5.786079288334914	14	-0.45629303272455146	1.8121890774735863	-1.2440920441234595
Si	21.965682442738924	13.838533112731962	4.268139606501953	14	-0.4882775829071937	-0.9355763750008032	-0.41387236604742833
Si	0.7387034665263859	-9.717657920137144	-0.9787345632075232	14	-0.6494997704492069	-0.6889438684971947	1.117698306358704
Si	15.721375333450409	5.393873983950976	6.606534251554806	14	-0.40341979447889836	0.7019343781272429	0.43664258898372377
Si	22.48266118945105	9.082471722799625	-0.6008176407678589	14	0.7516703536612512	-0.5672781363056596	-0.8517370013898186
Si	26.44550178174864	2.894945741758789	7.5500770592329145	14	-2.1020529201617606	0.981392700474246	-1.855522743649894
Si	17.4935854939707	-9.392827530613895	3.6388138017588596	14	3.009110594951481	0.060439486981784925	2.2236263496723025
Si	10.58504502405054	11.413428177251856	16.95283197730192	14	-2.364859221792292	0.6068543891671029	-1.2976186002309624
Si	8.530771619963659	18.3833165696488	-1.286630574130153	14	-0.7628523478091074	0.8999855924961214	-0.49960561583723406
Si	24.89307594349462	24.20408781414471	14.217880833363578	14	-0.5465606838569703	-2.3483792080217394	-2.1061777444268746
Si	9.798008018601548	-5.735560352173918	-9.512563779307404	14	-1.7821472544708483	-0.13459504951496382	0.9198895472215156
Si	22.81942796389071	-11.561055190700788	21.16935504902987	14	-0.23209599124455524	0.6375176483257209	-0.1773856982476563
Si	11.919156538180697	29.215409481513607	-3.3615329521489254	14	0.536206071401138	0.48984107205237565	-0.1215657161945814
Si	3.16205420422321	22.901159860608985	30.780447903829547	14	-0.30690692852383983	0.5786897301586047	0.4838930770047451
Si	33.37036903103722	3.9480426109972786	6.069044130762186	14	1.3691786319434518	0.84054575126281	0.24000034033028647
Si	17.251104400385536	-4.76332318075587	13.947342375233521	14	1.4403668818266477	-1.4645424709309363	-0.26927391706336445
Si	11.330187082440702	7.372854083183363	-11.674970246750334	14	-1.8184926563869934	0.6131659385070024	3.253808087591146
Si	10.731251039295136	1.9625749199630345	-15.216842571010732	14	-0.25280727304047607	0.9546817444137595	0.30476545490268847
Si	32.375435088300286	16.115893434911747	3.728934487876515	14	-0.5370352528668857	-1.3270670121258104	0.6120953302516927
Si	17.438548763518682	-22.222216718565576	-4.902532004842571	14	-0.35249056896580916	1.7755284580451909	-0.5514840934345219
Si	15.252445926020021	11.761680537177586	-6.569784297994431	14	2.7062690981598596	1.4898280062019327	0.24470931972413767
Si	51.387077863955334	-9.25817570076868	-8.383203406440424	14	-0.9131671352514565	-1.917782830308876	-0.7472066577149423
Si	9.696097947381725	29.348316913563156	5.492687259084112	14	0.12966624061623996	-0.3787179001155757	-0.777952706464869
Si	6.763961252619836	-4.587011603554615	30.2728281452908	14	4.065397536517384	4.7639377985115	-1.3058052566808458
Si	8.606995923641684	1.7518359862664201	8.140418513239162	14	0.45288323284897114	-1.3685247998605383	1.379913767986666
Si	18.72529693750023	26.50732990361861	16.56441926812541	14	0.36063557350950626	-0.20611651464765096	0.8532488113180655
Si	28.16171481303054	22.28548543861512	3.7674092392573235	14	-0.6911881863311521	0.3627631631619288	-0.5941323029324782
Si	27.2788437286837	19.93402741007	-9.259635898923479	14	0.774114560442952	-1.2309493250584587	-2.3958155869574074
Si	24.163525665401675	23.348970294726673	9.189017188161863	14	-0.09549547957987592	0.1453222151316856	-2.495194464012835
Si	25.095386887841393	13.58286123581553	11.197887249623355	14	-3.0586390822861538	-3.5958468563200214	4.32573634837217
Si	0.7572842430465114	4.965134325734216	-11.849165026626512	14	-2.051595492474919	0.04701548899475979	-2.9421299589247076
Si	7.8045141377097185	4.904756602031425	17.73954558315958	14	1.1014499491774963	1.207721445375177	0.5902527621149068
Si	6.610366046712701	6.951395815765366	28.554263116981037	14	0.23444289618078643	-0.1978072164739964	-0.2570650234506413
Si	-0.8848604818329012	23.23507483865236	-13.60739060481863	14	0.32230604961780274	0.2712644668022231	0.22425103469171945
Si	10.880671450477813	17.249075802949005	11.123926743084647	14	-0.3891483601783524	-0.2916106516426829	1.1305764586862619
Si	24.210134406503848	-10.561887653313695	24.293355901339766	14	-1.3938612430168733	0.10756836172116324	-1.2249205973037756
Si	16.335873756930344	12.21754656111571	-0.135337828978341	14	-0.0882197657449209	-0.9235945099878491	0.8963341087204472
Si	3.334514386291338	1.6951626578825136	3.5202731515545134	14	-1.0926644822985503	2.7246661280571147	9.935814880433655
Si	19.3815139082619	-0.36391274013625746	21.38670897436735	14	0.2887204721523044	0.054789483040759514	0.28677877341452856
Si	24.000385271556453	1.1563985386998001	-1.4284951948608167	14	-0.6607239307243135	0.973721550641052	-0.8499343994498627
Si	26.588081801575278	-8.00654088241562	15.282384888187208	14	0.5798032758727608	1.1237452889611603	-0.3098228190674198
Si	3.562863897734084	-3.9467588126195694	-2.160907069337666	14	1.7074191067828726	-0.6975838108150203	-0.2562931776335328
Si	40.65371002733512	16.474817981351407	25.326735195494663	14	0.20458439298737474	-1.0850907773569902	-0.692559613908919
Si	29.615856575482685	24.894692941451275	-15.117431496633014	14	-0.7170709893680186	-2.1730210834295516	-0.4544379802360647
Si	6.225402933177061	-19.631756592039014	-7.583328417214342	14	-2.6846252764643213	-0.8594688293085678	0.8979947856467306
Si	15.13575747347512	-22.163230593104267	-7.829484506155541	14	3.9238491897746126	-3.137590784683537	-5.076097238093871
Si	2.6698204262417393	12.261754305251937	-12.829506787803075	14	0.954119186569711	-1.4904234741940787	0.762828950750694
Si	10.513534514415857	11.82901625208781	1.843456070489339	14	0.7416697824080034	0.5514624961498327	0.5174614280645984
Si	8.355293041709771	12.128464673685361	20.937918541488052	14	-0.49427160074005483	1.849371117060908	0.5112992599437994
Si	-5.041633029065494	11.20450224126422	-4.041632492731034	14	-2.3601918943046276	2.5298444790808747	0.8218430169429888
Si	31.86715873059126	14.536115831221194	-0.5703788792322523	14	3.285194598676322	0.7512183533459692	2.335885435939544
Si	18.663037616175146	5.618430900186292	-7.505712515294829	14	-0.1342564349443003	0.043284043843628876	-0.9833642240337354
Si	3.679758150018925	7.76955758188309	-13.071537081957896	14	7.346623634132059	2.0675725980448507	-1.309174175981836
Si	-5.1718846644710785	-18.372908982800507	30.381510007953345	14	-0.04337840340887832	1.215447616862222	-0.5627545336053911
Si	11.739699164954674	-9.906699681251713	-15.74509130348137	14	-0.2701138971714568	-1.6615511020924945	0.3706199467992373
Si	27.097926157302883	-10.118918413078358	-3.479250403393519	14	-0.1868069994722749	-0.8985432024115182	0.696155047588614
Si	5.27528433380855	16.604736417178046	-5.30486069643394	14	0.43437538831241723	0.8544353764233139	1.0605053540646703
Si	5.383652596867384	8.902445950291867	-1.9893876860806843	14	0.833166678993985	-0.5839157588323378	-1.8460695607193056
Si	15.255552522094327	18.85308877601417	10.0452911061186	14	0.0013747700146831778	-1.8363248144454123	-0.6546036716202329
Si	31.077995127829574	-4.717175039071655	-17.562871406416527	14	-0.2780454999735816	-0.022822416374294423	-0.1025097120037719
H	52.2871077466192	-8.358145818104818	-7.4831735237765615	1	-0.044300658887215426	-1.310323460059942	-7.317022755691725
H	25.11078756838009	-9.66123449143745	25.19400906321601	1	1.6623746271265383	-1.5968497509320323	0.3914965506672437
H	32.75044729441054	17.516495905019617	3.397317606929115	1	-0.39700360115246885	1.6625085817137177	-0.10075287573851471
H	4.8315879344921	17.573621012832625	-6.7548198241715385	1	-1.7524928970398563	2.5465456079089606	4.409373890215524
H	30.4918970684611	15.183699992891842	-0.5437493728830237	1	-0.9073505236856856	1.2738312480300165	1.168517231453559
H	30.802116656447506	13.486840957152982	-0.8462926305697398	1	-1.3212840820397336	-0.6092840836946428	-0.9434619550176973
H	41.578943518150076	17.400051472166357	26.251968686309613	1	-4.374422027382899	0.3855200163505595	-0.6419859722616063
H	2.882822177078911	-4.629208390232018	-3.4014630016907255	1	-0.5575652717377362	0.04232090779070141	-0.7475103052532517
