72
config_type=liquid dft_energy=-6929.239203136972 dft_virial="17.099874868370943 4.604573090037433 4.157409824075794 4.604573090037434 29.227118430249543 -0.376847666400105 4.157409824075793 -0.376847666400105 34.90290573235724" pbc="T T T" Lattice="10.6165606448 0.0 0.0 0.0 10.6165606448 0.0 0.0 0.0 10.6165606448" Properties=species:S:1:pos:R:3:Z:I:1:dft_force:R:3
Si	-3.002886746789229	4.897499049651076	1.4121066080527191	14	-0.46534718010945303	-1.0426071185995234	0.7118791563950437
Si	3.659412733751532	-1.4696112087852782	0.22993771706933633	14	-0.8980379802161093	0.13086720391128112	-4.448424352038996
Si	-1.7660574316700286	1.3370231062045002	-3.190067327517697	14	-0.04973674686560452	0.10346127808275869	0.6383812826027586
Si	-1.804815309616	-0.7432218828438043	2.942955200293268	14	1.5393433808994723	1.7256330739813333	1.0168811529871857
Si	4.457605044301982	1.886870706839659	-4.7249438428668835	14	-1.4873093514303153	-0.7407045894708197	-0.26301996048263626
Si	-0.40893186788459984	-4.801139960270677	5.108712338711179	14	-1.1930694874872492	1.7098354315627473	-1.199732249813881
Si	3.037493549523083	4.419189019608773	-4.845145604143374	14	-0.10441901481451385	0.043528555959574965	-0.16205651121840142
Si	1.4743026669342154	-3.8425664530274277	2.1669960910451587	14	0.047621241408186674	0.8695262219893911	1.2828625125775686
Si	-5.085025730256565	2.9662904005905384	1.8890120671217152	14	1.7285834173362031	0.03215732846015606	-0.2256954816605786
Si	-2.052185419264098	-5.100822110839963	-1.2810090705864707	14	8.434626445374647	7.0632124944658585	4.018009237251203
Si	-4.722024288689563	2.482304757227525	-0.7380813441795923	14	0.11279721861074837	-0.02001528358575675	0.08719749426963
Si	-5.189596729295716	0.6546086361098521	1.9542858669341392	14	1.9551893273906464	-0.332312020192223	-0.062363959313915765
Si	-0.05575605319436064	-0.05730182442424352	-1.7157487357425147	14	0.06515000903882823	-0.1777402536713047	-1.3367374534559513
Si	-3.7576392761493502	-3.2841650894807533	-0.29457983152339456	14	0.7086326217072926	-0.8617329446534902	2.061310413927098
Si	0.12990635936190176	-2.3186462282636753	3.825084162613636	14	-0.5788555664517543	0.2760027567967239	-0.5945400802362537
Si	-1.194175159416587	0.7754537609614172	0.1068864709157819	14	-0.39670201049841547	1.6823672849854774	-0.030735250107582154
Si	-1.39899727896852	3.1170742264604394	2.693860961196455	14	-0.7041563273449148	0.4519188112433836	0.057070824791326906
Si	3.143804602851917	1.7895242773192945	0.07598484784696256	14	1.190740066067195	-0.13680799986401526	-1.2224258538116357
Si	2.7365597064537757	1.3979451778086205	4.072661295194307	14	-0.15532972836929798	0.4705780938832942	0.3227086847109379
Si	3.296877359196837	0.19956161375243456	1.7508746882919	14	-2.264818028006395	0.3450819289858025	1.147945560676522
Si	-3.5702304393670183	-0.6103205917240044	-1.8387617622777481	14	0.8024879932034461	1.0063504198169233	-0.08263789609487941
Si	-1.9094234666174077	-3.906991989644332	-3.429430427127487	14	0.6013046583335632	-0.053161459152041755	-0.8340501107819879
Si	4.630536077333	4.376147359442625	-1.5929469787641133	14	1.191400840134473	-0.693810456647171	-0.09089782904638713
Si	4.881376740655883	-3.9747840376417027	-1.336220494219753	14	-0.43226631061829973	-0.0011469700833180582	-0.36061449044588106
Si	-3.893041828957065	-1.7556595721745114	4.447580887741161	14	-0.3973805251924025	-0.15205259752823724	-0.0970509982985655
Si	4.8401749304494786	-4.59324540806814	1.7801986904489022	14	0.7774778233122377	0.8215553102576643	-0.33830141003550795
Si	3.701978772000793	-2.39284006232986	2.028965939477856	14	0.24221946133210626	-3.0754811076857838	3.8200199865205406
Si	2.8546838068120786	-3.712536941562046	-2.9386013487728353	14	0.8551429446074188	-1.3436398427984209	-2.428814438188848
Si	0.394909514584948	-0.6451938701300435	1.4294975960449658	14	0.3060692624105356	0.329567879484029	0.9614314101002123
Si	1.1938577242533075	2.6813535911008155	-5.106132514474492	14	0.7805798618809963	-0.255341868665078	-0.21030741631949235
Si	3.6908175817949145	3.959961195669433	0.8435759839948408	14	-0.9512233506476284	1.1143373574842064	-0.8261889562656352
Si	-0.6015905939057854	-1.5100305784721608	-4.179032862918817	14	0.559143159072711	-0.7018207352720924	0.9150653823093218
Si	-3.2816086216774853	1.4201783791109606	3.1676759394617497	14	0.9196499202056778	-0.035882345847986594	-0.23692632680951742
Si	5.091085663072617	-3.7881576413788927	4.429439308911327	14	-2.396937874429652	1.7062587669518894	-3.655642538529641
Si	-3.7198942180888923	4.453550579791732	-2.9632774206795442	14	-1.179527218655497	-0.7849641106729128	-1.6136619515099486
Si	-1.2215202346693983	0.3720775392622411	5.285186118029366	14	-0.21250545425768697	0.2935191831218288	-0.9061048231580738
Si	-2.961938672382235	-2.490392453126734	2.238464653993823	14	-1.105904389144653	-1.9008852690343305	0.24857574790457634
Si	4.222498123854692	4.355183898793403	3.220327710323571	14	-0.7126872547971662	-0.6205887195662699	1.8215908382977717
Si	3.8212982970877003	-1.6298151089153101	-3.6482122622712674	14	2.837045027832275	-0.06954042848351308	-2.038725824794917
Si	2.5362814748578173	3.503658234187735	-1.647704013601798	14	-0.5442569734901177	0.22900500842867322	0.015813583271570758
Si	5.018577738836827	-0.05645249957265952	-0.8808135704564768	14	0.4673156183425584	1.374548128294049	0.06647927048934477
Si	-4.5268919040381395	0.5502467833154037	4.9779460379370475	14	0.9463829877719175	-0.6233544575591532	-0.2978252703120128
Si	0.5961315584222293	2.257191205315186	1.1824077635978907	14	-8.282950000554749	0.790175484046321	3.657088271051161
Si	3.714586999422557	0.5284403677509845	-2.7885585588359416	14	-0.8031531381497684	1.1081821313477722	-0.35526067783773674
Si	-2.3968074710428215	4.496011514090609	4.633224190488263	14	0.7933945079071465	-3.959837979382853	0.4968247083229619
Si	-4.1859941417336115	1.63441951126696	-3.2622047337869846	14	0.7662024980412603	-0.3232234199960316	0.6751110647642661
Si	1.403068729975801	1.6799783579619902	-2.483735869602444	14	0.7558406864905315	-0.9498786625651907	-1.0022070835935046
Si	0.984367502985856	4.5829845022049405	3.6522423086920335	14	0.40920298167550745	-0.2635969165164775	-0.4460793168402633
Si	1.1396495656009586	-5.130601563448628	0.3694775435603296	14	-0.7346267536045217	-2.151658026434973	-0.7718938967779401
Si	0.8906551221742063	5.09030428420916	-2.248910288012242	14	-0.19475274335366052	0.2714616705802785	0.3332772131294066
Si	-2.332102718880959	2.8861512925632655	-1.032172813913326	14	0.28085443253584336	-0.8279563340627049	0.3131068918928449
Si	-1.9569124040376626	-1.4951939349710526	0.34041683210731855	14	0.026910988054393896	0.4859108804599973	-0.9858831359158845
Si	-0.7697961957938032	3.4661838984237203	-4.082880796470992	14	-0.9210149200201445	-0.6764614092784077	0.37107606088303163
Si	-3.019351970693249	-4.189397811076335	4.086515906835771	14	-0.8421022984236275	2.959816078200942	-1.1694081194469903
Si	2.4926389173591734	-3.801415602312119	-0.85898167514651	14	-0.266627221246804	1.7020722361590923	2.4210993224546797
Si	-1.3187838550167335	-4.150337361151987	0.6418846881770593	14	0.6957441849584544	2.4760459000305004	1.1750576091669518
Si	2.555536730899291	-4.048637080111189	4.46147690396914	14	1.0519859965863596	-1.5408425924116507	0.3823220755533593
Si	1.8268351180493798	-0.7457879055516524	-4.93837386978962	14	-0.8631609365483004	1.2198400931911628	2.2489733343604503
Si	-4.451161853646653	-4.301459855306456	-4.513373837369116	14	2.570204661954431	-0.447551274636048	4.028923836445764
Si	-5.093801379285557	3.9291105320917086	-4.794091625658595	14	-0.40981927562074694	0.20005127719742166	-1.0694463728154853
Si	2.3808497187376227	-1.0660778619885591	3.6451005483462766	14	0.31477888168253726	0.23210833255009194	-2.6597539462604005
Si	-3.658869165846518	-2.7881455746268586	-2.4582317059654413	14	-0.9245974981732388	0.0685302412032269	-1.9372088165552546
Si	0.3556770763781541	-2.1249300928022676	-0.48066690650544897	14	0.2522076912798175	-0.22109371735857755	0.26155854421866404
Si	1.1332201764744678	-3.286324497915906	-4.502552377103871	14	-1.6246606258484781	-0.36700368716644904	0.03822333724198142
H	-1.1849780329299968	-5.597002997415658	0.3570190096436568	1	0.41011083896405176	-2.171927078115829	-0.14721274887359048
H	-2.831321003457132	4.792731644239996	-1.7792017954043555	1	-7.288464460458712	-6.429227030628958	-3.0642199234940675
H	2.256616849384302	-2.715948715617961	3.649027614128788	1	0.08477936971603074	-0.016640707853062396	-0.030463484275242498
H	-4.711173102054514	-2.268456437815383	0.2569409390693851	1	-0.7145433357277811	0.7037557491360357	0.2854919352017945
H	-0.07479685471080944	-5.773952398650733	6.1741362205640185	1	0.8472167411264663	-0.30988812514255154	1.5058511345570953
H	2.169652354518487	-2.2682642780677122	-3.826924012573379	1	-0.20693566880265016	0.36101995375486845	0.020111957145794317
H	2.7149868552235423	-1.435799586443719	-2.7917562669021554	1	-1.770022693112626	0.725274100891951	2.607005920843839
H	1.7309367874009658	2.0825668308613223	0.6770775250585069	1	5.749564338116434	-0.803179363424034	-2.8118075722307663
