145
config_type=liquid dft_energy=-13883.336408772217 dft_virial="-22.548924428379117 0.01951443048756306 -11.176890061751742 0.01951443048756306 -28.308120726021162 6.373900858000284 -11.17689006175174 6.373900858000284 -38.919092303633576" pbc="T T T" Lattice="13.849990867899999 0.0 0.0 0.0 13.849990867899999 0.0 0.0 0.0 13.849990867899999" Properties=species:S:1:pos:R:3:Z:I:1:dft_force:R:3
Si	9.361181127631873	5.015857292755192	0.9329686248398269	14	0.05938301980573608	0.224538998487576	-0.16311194995232217
Si	4.030194992659353	13.206284842332611	12.669542296238015	14	-0.6751727712919496	0.3463199161974538	0.6581050028452107
Si	8.70787705839303	2.656012748737183	0.5713398232826107	14	0.03573116485516189	-0.07770034543806703	0.1992740320591409
Si	13.831750429926975	2.4903807079479665	8.943576202982953	14	-4.18126208377507	-1.5977630075417486	1.0020281346632225
Si	5.092600092154226	3.9625100872879258	6.616750037194017	14	0.6440022330536663	-0.04520285974405539	-2.47652566828324
Si	4.272403632957188	3.667699181673806	3.951277744694059	14	-1.1394130905610789	0.25101572685339685	-0.013364091233065683
Si	7.9584263525492265	12.114393112279979	10.776165444650877	14	2.123232657347012	-0.5043950708276058	0.031485755750533376
Si	7.52152839062132	10.395567695600985	4.318399452629484	14	0.18724768692414825	-0.2972066623719852	-0.27385871207025253
Si	9.762415363074938	8.09479336263457	13.014864118547365	14	-0.23716415405163113	0.4508728855991474	1.184679970827606
Si	1.3117174001088543	5.330778385109502	9.362247576928702	14	-0.53700259982932	-2.8563244610754057	-0.5745042278079358
Si	2.6751811360983564	11.929218734376155	10.658869871990632	14	-0.713674816350635	0.5244293805927317	-0.9315425678640229
Si	4.8698922389983945	2.011295673836438	9.910554865397994	14	-0.6710852280539782	0.41697697572150716	1.6351085694274317
Si	3.6661202827148656	7.322836421630427	12.240912778858245	14	0.12375681214841158	0.07730773765568043	0.511916325220635
Si	9.76100266400641	6.328393227324339	10.210573367578446	14	-1.0361181629925336	0.3375431910765963	0.6892716844255136
Si	6.171195830973675	8.808220242230966	11.117706219453291	14	-1.3554908385505795	-0.6004255974246047	0.6152791299696321
Si	9.656185933118143	4.366625120831512	3.536276618328303	14	1.2035331148086559	-0.33118227651454996	-1.4742913309733416
Si	6.535339790872501	6.376314195727273	11.266468971365404	14	0.22825784522263817	0.4143338794523949	-0.21495468918566002
Si	1.1851728035470255	2.152316280853396	11.069189701443038	14	0.9442978213572775	1.5104575268486724	0.46716598001292575
Si	13.495181801846137	8.776088263417439	1.5410192339168933	14	1.7668499491475633	-0.29261569671232873	0.46281849802708735
Si	11.342436171275837	11.415508723094877	11.137345506503973	14	0.4708472886103138	0.11539969141580225	0.39489066680037116
Si	5.907007255168482	0.7592260293983686	11.874705170320102	14	-0.2383584324728399	0.8580742617829195	-0.21781658651751684
Si	13.43731654000005	4.416235788120329	10.885871222315513	14	-0.4675033090309291	-0.17440450162894458	0.2253406691263982
Si	4.463298057089453	9.395667604892944	5.765848148242845	14	-0.05166944673475983	0.07326493165027959	0.45723508571385374
Si	3.525224325615719	5.432617367961171	7.838914781350117	14	-0.09233173448343371	1.0944652844647822	0.6509457600812583
Si	7.100654868127576	11.716441324672607	1.979551494767211	14	-0.5158586010080181	-1.415354655051183	-0.6949869944416707
Si	4.542672354753388	9.797622039861139	13.419283851890045	14	0.9697371087264186	-1.5106447033159793	0.04871910337988991
Si	9.647806688643064	6.355248359617198	7.363278394964696	14	0.472361155422817	0.08247154558066583	-0.5453993155838596
Si	4.76294260951647	13.226381179081933	3.693570964615043	14	-0.4959703300250767	0.7676986242270544	-1.426127843453136
Si	13.719828653723475	4.42791133042197	6.884678110533542	14	-0.755660452007589	0.021016214886890396	-0.2552048287515141
Si	11.641263574241647	1.5599937214059163	13.748664334710442	14	-0.17465646995031908	0.13406283071369318	0.266349027651164
Si	8.198515944244273	12.368942094441113	5.756430154452673	14	-0.6168999547634534	0.6211744173581996	1.0988281930825412
Si	7.82708688914893	7.85208612266549	5.368201060434568	14	-1.3383366809650836	0.9495966123115707	-0.10530630326049698
Si	5.111449929725437	11.069965300931639	4.318884202309861	14	-0.048358891524537165	-0.9781230258386134	-0.27039980408305725
Si	8.144625629777273	11.398514784299964	13.807457545944677	14	0.38545830982287593	0.23169721280940025	-0.5167554025436858
Si	12.509145551996864	7.108812512748767	11.533621445216328	14	0.2618264533930235	0.008537869436615726	-0.09832061010565463
Si	6.808184610970131	5.004818850033476	3.4737439095597344	14	0.2561193709138908	-1.5952057861903295	-0.03560749468926276
Si	8.324093811443522	12.361989399025427	8.560499305567708	14	0.21618522019188288	-0.04755336422773477	-1.7069002577292662
Si	12.787350318560371	1.9034457949481005	11.563745175354011	14	-0.9443572138901728	0.2673147348094116	0.31091399616529064
Si	7.564837312065243	3.0078440667544464	9.997615907993614	14	-1.2783864753257228	0.10183608240989309	-0.19643090379612116
Si	13.534446525956634	0.044397530726140236	3.70513570698974	14	-1.6636833197344933	0.17914124896025338	0.11058272559850486
Si	1.172433581946731	7.815051247084725	13.511303191216372	14	-0.08886794139613022	-0.13503008053513285	0.6491668123102478
Si	1.7490599467436194	13.511774090905881	0.73172825752924	14	0.5531226588550523	-0.11931342793413169	-0.7728542046150154
Si	3.549406409671072	7.20206450126234	5.4576304514685985	14	0.8501076919484407	-0.4581748247083679	0.31246385845227587
Si	11.425342216611085	9.14197732216562	0.8210011436664629	14	-1.5769722785914353	-0.4111667919190365	-1.231038028192004
Si	5.4944852771680806	6.2102528052211525	6.650405515003014	14	0.5731124884981396	1.3634808054434717	-0.04478196980314715
Si	11.541114290275862	5.928973340684971	2.848486071828389	14	-0.31833086368232183	-0.21740700944001723	0.12399052562201306
Si	10.726790227206815	9.906704567936718	2.992692176744964	14	0.03117876577530769	1.303061115972652	0.7733488852786119
Si	9.340738541110852	0.6817588754769435	2.852087069454043	14	1.7259284939826185	-3.166777715167326	0.20720332086647758
Si	9.353522082681925	8.880586444515744	9.16566080654973	14	0.9339234113904799	-0.9781042567697765	-0.9328674584354951
Si	2.2260120822614917	2.8648152110616434	2.0120020233707008	14	0.07373544392386668	0.22422223831213375	0.2109316806912243
Si	7.608575583226071	6.698852783058928	8.55797860722975	14	-0.08255073562452638	-0.9593449581329121	0.5440692828017469
Si	13.189858753163282	10.552737391969915	3.2724896922582793	14	0.039326598534856955	-0.12021434323831157	-0.4153042146002188
Si	6.688589939825815	8.941110904608466	0.2924924171428329	14	0.2535665204415158	0.11332635208563485	-0.5137767770302942
Si	2.85283496896091	11.050090564036203	12.786450069153958	14	-1.777230529767129	0.541779713514155	0.21219332207182096
Si	13.782001262729477	6.2638938198525285	5.061811562454885	14	-0.05890659398991264	-0.5307807820650936	-0.403135687341022
Si	13.352499195925033	13.770561170272591	8.241963365596874	14	-0.11612705711087215	0.7750447863477816	0.8473848914144039
Si	0.765336645369286	9.716253343512227	12.095418624790955	14	-0.14306041378155135	0.9190454533449112	0.04404791923424488
Si	8.554072909805	3.29682412621318	6.055160607482407	14	1.9888209276413753	1.5536171291948062	-2.544324944243949
Si	0.9694591957794831	13.805255397396683	10.575022027276365	14	0.061583371738718806	-1.7184712601120609	-0.4871002737810978
Si	13.376196530300007	3.588144834128589	0.46756876670486996	14	0.2880216457262882	0.013749242810023867	-0.27381603172193797
Si	11.403860880774973	6.591432253887496	0.5056742465797234	14	-0.10231867887848489	-0.506947921299981	-0.6547111438226151
Si	1.676679894467974	10.831842407939835	3.4194242453758306	14	0.16368453510711917	0.5174665702752387	0.14517489079684115
Si	1.6444648157092385	5.3720375079049765	0.7085018228437716	14	-0.5848277298893944	0.6501944831067109	0.6990953636327354
Si	10.794156582788279	4.2073917758232655	5.7569010541421815	14	0.8184303888515564	-0.4692177220584039	0.6846668347971284
Si	6.987084943010795	8.846501616989842	7.969506345243547	14	-0.2983096665543287	0.5785593751188732	-0.664708372638947
Si	4.466234255153449	4.1050680432912205	0.7501432053871998	14	-0.3645289982958065	-0.559227491327212	-0.7878560899370154
Si	5.989054601069921	12.18844901345064	11.69900418616992	14	0.03546659811771865	0.718709040567485	2.848573349866755
Si	7.544117725726865	1.1027778228748015	6.396673682303086	14	-0.3708634304730553	-0.9651528279405945	-0.6579461085364254
Si	5.255406734806391	9.921260908338882	2.117372753893684	14	0.35465569675590586	0.13421092638013368	0.020179320105182197
Si	9.829670918729459	7.807364502153041	3.2571993023401182	14	1.315583684434433	-0.8509458722828089	1.7704330415217213
Si	1.727606310889242	3.2600108504863017	8.135733935640081	14	3.735157055881605	1.2695678411881468	-1.6392009977655113
Si	4.353079829762706	13.410184407889835	9.945844642129403	14	0.17223937383884788	0.2918831888066186	-0.06974688824072096
Si	4.858784546322338	5.626170990340074	2.513731792551246	14	-0.6678235238448383	0.6365534838306653	-0.4400158791637581
Si	10.06952506057975	8.368261432321255	5.897852411204799	14	0.5823669249874805	0.7409709559819871	0.23874615515511824
Si	11.251414031291997	4.073393114176333	12.914133134965127	14	0.0809221975147446	-0.037024430831196366	-0.11425323555354824
Si	5.003863200663591	9.51138427859425	9.182239245618605	14	-1.0649163423519163	-0.6600546720094789	-0.33334457608879453
Si	7.313418427840255	13.03561140486748	3.759247621310625	14	-0.29310729204954106	1.4997763840171812	0.019228268247259424
Si	2.4494539849333226	6.952736965658403	10.233370452547007	14	2.223706311047759	2.107927638707767	0.569837157430803
Si	10.899097963594357	9.061148775460556	11.249433482597889	14	0.227299851380351	0.05073253595609787	-0.8574829075592855
Si	9.920651508740693	13.37381433187073	11.226345547821099	14	-0.2868019133624099	-0.8657790930958074	0.16733936131970964
Si	2.474813318212447	8.99299297039962	7.118646006264978	14	-0.9150108748765347	-0.0405653570781043	0.35843033647641526
Si	1.839001787439762	0.005520606359944939	3.0207384082524613	14	1.3161094754724034	-0.016596227731023833	0.19507670262399915
Si	5.679493455181488	4.761765360292698	9.630438800094717	14	0.05955939763069824	-0.03654106303100853	0.35070647898415835
Si	12.072870839658014	9.972907524285281	5.375153755850254	14	-0.10665664777463874	-0.2966631307073059	0.17572116466339238
Si	6.393266584549583	7.8265882894776855	3.019145659302653	14	-0.7138563363862375	0.2817085537231966	0.569802704619513
Si	3.6309413059103997	11.11118287375451	7.703641920543338	14	0.5171639511790573	-0.00915622026611134	-0.02263395435432757
Si	6.072279196195132	11.041655919597654	6.660114358601412	14	-0.31719777756773254	-1.8309049244305404	-0.5455404692659356
Si	2.8254119870424677	8.934102809229309	1.441756349366654	14	0.6200058499901923	-0.7122352544818842	-1.3560567388315439
Si	1.2234112433342106	2.4046908144482693	5.205588317654554	14	3.218680104044091	0.49979819162571315	-0.1599903709831304
Si	0.8443896232450857	7.005089931139065	2.6857763791123	14	-1.0306275675813574	-1.1235149179244752	0.36084846103001456
Si	8.297363329068475	7.8815312032506455	1.6967900812081647	14	-0.5728450935448441	-0.762985788175223	-1.3520879806593635
Si	12.959353355148822	2.3563127963466948	5.280309018386874	14	-3.494386669507934	-0.08554967286994711	0.24810060764141298
Si	0.3458134969851611	7.401421269814891	9.30652906366714	14	-1.7552378090796463	0.718725752752066	-0.7443226488773321
Si	9.551119902394253	3.980362725516649	10.671847313433855	14	1.0729788144148364	-0.009642159171619325	0.27885642659155635
Si	10.20302512255544	11.820136206300575	4.857261047326869	14	1.9351401052146637	-0.29268537366650477	-0.5480447258477599
Si	11.934703330759845	5.974055060959985	9.234883060907494	14	1.3764288918357375	-1.83086275830329	0.7446988015856699
Si	8.927053163877549	5.744325262434128	5.127322019260051	14	-0.3226318086618655	0.10766914904971306	0.9938831301195253
Si	8.689775120328685	10.360541068696065	7.076542034026561	14	0.3863875072855774	-0.683721182260378	0.6122187433070598
Si	0.16967623812264288	8.24046756658314	6.328434777296943	14	-0.053456879153326774	0.8360985103905498	0.5300279624273543
Si	2.798612254713081	12.257643567826667	5.003918600627062	14	0.2376691191365082	0.03813437699790429	-0.10485687405053508
Si	8.560831705348535	6.074661394624411	12.622050677551986	14	-0.2187383277747899	-0.47473917073342187	-0.9343640988423533
Si	5.7012102408623555	6.753961896722302	13.504115045955931	14	-0.18317711298128983	-0.4143508487475079	0.4317703444020432
Si	8.28552158687642	2.4607140275089248	3.277351039052913	14	-1.1170357325177018	2.750430917359787	-0.33354435097217
Si	12.942262466417832	11.518885054932882	12.95956110501184	14	-0.23839211395253385	-0.2361704218453939	-0.27337174472261644
Si	11.305248945795524	0.948519394586305	10.015080746478036	14	0.14289663437265793	0.2950055391074064	-0.8078772870650085
Si	6.225155395395013	13.081911924338868	7.431074100263066	14	0.3587761501419752	1.7741678291097687	1.1296961122246432
Si	9.872245790657384	13.384686574702032	13.551911364441054	14	0.07774765377595776	-0.29745246004059134	0.5895534214678264
Si	12.204501152866536	13.26017515679961	5.599869857681931	14	-0.6098116745063372	-0.20566451433236896	0.08644236063710252
Si	11.205085811838872	3.498646193140219	8.642172701715714	14	0.3649077221094643	0.5603549210100969	0.48750213754263694
Si	7.909245034977314	0.13341142203413353	1.033644208458592	14	-0.5480881775276704	0.05124392880427532	-0.8471195533453646
Si	7.098577369497391	3.1158739955240664	7.529519835352099	14	-1.8029094441521079	-0.15095396422493798	3.3894750309140798
Si	10.083416601420256	1.655891058175256	5.297178307263977	14	0.3056229185269579	-0.7283653408183651	0.05598916078314061
Si	1.374822113500267	9.546563255398715	9.527214818156258	14	1.506713483281473	0.45851421061062747	0.9224809642736929
Si	0.09911745964612634	13.754924530582734	12.816269099492548	14	-0.20395061552595825	-0.5508742272525827	0.2811686216059655
Si	12.210733648757092	2.1093951591537734	2.905880433984967	14	0.2976221529917211	0.9639693481617303	0.5531943926934844
Si	11.630294381474268	0.01522252496290889	1.967889802456439	14	-0.5071083582719581	-0.19509032948219593	0.3316630732094176
Si	5.615672697262205	1.2694555379745442	0.5301610304341705	14	0.467811841669347	0.04266595012466528	-0.6530394111434548
Si	8.22787792488422	9.702223302763043	10.902463511375258	14	0.3222813670067293	1.2300738636969484	1.250055465803011
Si	2.1519423310999626	4.563945940726483	6.042958765527788	14	0.1802514522374933	-0.16961041864899645	-0.8474782225375252
Si	11.279723412625984	11.587345559792913	1.2249901422931513	14	0.29737866931790313	0.26039074818225283	-0.6250848114396128
Si	13.547160817573365	4.368965769288186	2.720442906254654	14	0.39190587063421123	-0.08159402733489929	-0.059352937873490344
Si	3.117771444272969	7.122233153899763	3.131981534903434	14	0.4852570483770837	0.2607897837279398	-0.6902772437162236
Si	11.087070039653495	1.355682811119916	7.554906868612959	14	0.30348530156378684	-0.6509179921438006	-0.3063970783388545
Si	3.4806827549845525	4.8114452775358565	10.979330960692101	14	-0.3190186343554614	0.1595941636532956	0.30979196580357804
Si	7.239404076642197	3.864008952235421	12.936002270545542	14	-0.11138593890051912	-0.048550438870888196	-0.034771114128618594
Si	6.317687184383452	2.7961054063659914	4.518060920981131	14	0.7692464296297835	-0.627916626839224	0.5805962047534946
Si	2.21315929073608	3.772599012507281	12.930282224317098	14	0.16907742851612978	-0.5540356583542368	-0.38655282935766294
Si	11.153785445664171	12.67120429514216	7.83104798653715	14	-0.22740783780379722	0.2526188110205092	0.16993720613518729
H	11.222204400551597	7.1163746077626415	8.74157408617463	1	-0.36053478618095647	1.9246592514876122	-1.2107779753797687
H	5.602681405828115	1.3506663444275626	8.849410115072102	1	0.9152541014398208	-0.3508710297246479	-1.2657338089347423
H	11.937210179106934	5.821552811513539	4.577075732069252	1	0.6513483951743934	0.44894815615648453	0.09246980283912566
H	13.140441985746614	0.9555344149608964	0.28926121427335183	1	0.17214141472615024	-0.26880314767924535	-0.11874727054263508
H	3.132646334465093	9.462826210611391	10.006936951847711	1	-1.10887607267368	0.19583312180918672	-0.04366379609941476
H	8.072051677629478	6.093982131885132	1.59076840111439	1	0.3315322039486221	0.21528944709834327	-0.14255853402305843
H	2.072692683353839	8.07144227803129	11.898444054667682	1	0.16721723381700263	-0.26856429199500353	0.029992714891123384
H	4.072714464623806	8.184333553595543	8.964060339476578	1	0.6447653371126862	0.1858276654558305	-0.09915030579246642
H	5.321609691154952	11.576791866751572	10.602874358911713	1	-1.0194152343907237	-0.9978804275607593	-1.833085221742026
H	0.785103352335953	0.6902406098844455	1.5579023727848635	1	-0.2276960587101858	0.17863422699112017	0.014914467741114976
H	2.035907107608696	7.551762920685946	5.6535524222859115	1	-0.6607357578087861	-0.1248719005257598	0.1274504620513363
H	7.651025805236186	6.196749064124949	3.946804197643727	1	-0.2559087973881707	0.7017705987183495	0.12605126653611173
H	4.340794887862878	12.752628391454547	2.117899053546664	1	0.5418051674568245	0.5569613190980334	1.2736533275418622
H	3.8446051150294926	2.843181525325983	7.978494989316814	1	-1.3719883358373097	-1.1231757891327476	0.5176385772211566
H	2.6686300904178397	9.494016390045903	2.8676129092169593	1	-0.46015457580488195	0.8079724179618538	1.3238199632169954
H	4.517562321309886	3.3456591940133955	7.9563765539007765	1	0.07614251272458931	-0.4165146909849445	0.8623438392775575
H	8.14437632994165	9.366831923905977	12.962954352774474	1	0.14611977200199555	-0.09944855400960359	-0.08887745448581477
