145
config_type=liquid dft_energy=-13881.219495227142 dft_virial="-38.494653440529085 -12.357513106249307 6.48123022568188 -12.357513106249307 -29.944893583165513 8.152153336179468 6.481230225681882 8.152153336179468 -48.395787609156386" pbc="T T T" Lattice="13.849990867899999 0.0 0.0 0.0 13.849990867899999 0.0 0.0 0.0 13.849990867899999" Properties=species:S:1:pos:R:3:Z:I:1:dft_force:R:3
Si	10.30472560549843	12.708142220786852	10.4298187230173	14	-1.3212750831711129	0.6908721974873057	-0.4845615643879836
Si	2.8192902910788558	4.164803053904473	0.11772492237715	14	-0.47091002358012535	0.3615886822516851	0.46755961623744036
Si	5.9371448352970315	13.18044075937311	5.615451097408318	14	-0.44845604659820815	0.32724925670631944	0.609532195358037
Si	4.872966936971068	9.732997982471517	12.624474425953867	14	0.6724162892782188	0.2563625974771768	0.03097333446022786
Si	13.429020395470179	6.815331206257968	5.116892976136522	14	0.5742355473019802	2.2987201085368034	-0.7356806496752505
Si	6.637912823240168	4.122588281739113	7.798278908143699	14	1.4295646399345776	0.44074247352723195	0.09350518695154929
Si	1.3605081479382923	13.048948946073267	9.321196203996246	14	-0.4095518806674515	-0.2674744004497928	0.27852603955791727
Si	8.79395475163703	0.5452769104673966	12.783832420879925	14	0.1849138946250498	0.13976142854526935	0.5282826961360376
Si	4.776543300548748	2.306951428893499	7.416282310016148	14	-0.6194702887520055	0.4971502102564926	-0.24680965566016663
Si	1.5474594796704668	0.23726834855525522	0.9118404637708455	14	0.24066857060299296	0.11412082362956062	-0.7621758899993765
Si	3.5675498977080213	4.79928498555384	5.620450944111631	14	-0.23410865248916712	0.33870275957598306	0.2583199799574055
Si	2.687313728098637	10.961242872618625	3.2514515561299397	14	0.40211547274998727	-0.14891533481659255	-1.339266649759381
Si	4.632891195266889	4.17181114928363	8.92947691227943	14	-0.6775651847923474	-0.48990637812750754	0.5904139704184801
Si	4.534445460177856	9.647349638944423	3.4901976987107997	14	0.9393875244168586	0.10575907490737503	0.08207765224561914
Si	5.10800128199933	7.299042137319375	10.017047445181278	14	0.6511607044860227	-0.18618196376894686	-0.0739581016445915
Si	11.722881570426182	11.330109679403405	11.713435876654275	14	0.27738626856949566	-1.1436250752965456	-1.1284892353873657
Si	2.9996448721606495	5.317177694077224	11.790012476162893	14	0.0267199549291069	-0.023262332494571762	-0.2979597391202566
Si	4.61890270449031	7.404094318052396	12.462512632744644	14	0.2620097732023501	-1.0246443483908407	0.3665288040138177
Si	0.00831691951617395	5.712871933173128	11.21987760208579	14	1.251652379317355	-0.7794483184295992	1.0645422465278347
Si	9.91619181168123	4.927411251072782	3.9093538223369255	14	0.09392633400298955	1.184876403274065	0.31034989565805016
Si	2.4045246145578543	0.5012754894800783	7.420478857249122	14	-0.9486021087737373	0.9933439693338901	1.709461078628134
Si	1.419748713877561	12.318943627407993	11.975519253847544	14	-0.7278395497803948	0.8524191156312537	-0.2981201760922338
Si	10.323339993224886	12.374717540633027	13.211353938990262	14	-0.49534837964813283	1.1573540063745402	1.251024001177111
Si	0.19230158320444432	10.77983569223087	1.787078171676005	14	-0.1171002204745482	-0.48240414991384734	1.0794009212835025
Si	12.036445363675437	2.3961869200553787	1.9412424200265999	14	-0.6157025910158604	-0.40046405180285616	0.065892801365819
Si	1.3607200527985712	8.91352172279961	5.757759753575991	14	-0.6637136119905817	-0.44703036869818613	0.2548932107867122
Si	10.028224387811674	6.564397071713355	8.213847884135037	14	0.14590791292361535	-0.15879095035128135	0.20262855317033807
Si	5.668953612131016	1.186199087870337	0.42488032485182864	14	-0.6794552043131882	2.337051432202231	1.6290980965205215
Si	5.61359519863202	12.838747634671147	0.2486488860514087	14	-1.6913317007947057	-2.3379433486377903	-0.808424675387668
Si	12.770162479893308	10.41340648383884	9.222085669345553	14	0.4442741437949873	0.652278106858159	1.0707895182347305
Si	11.294570602836375	6.27457216281168	1.8026040114389206	14	-0.9395271354357426	0.6938767911644308	2.907868437870542
Si	8.487966903392515	7.910616184073235	1.2711950968275525	14	-1.6248740275900502	0.9666039597832861	0.5615399434521531
Si	1.8832525082627025	7.653560353565011	1.9246916809394592	14	0.7890619383321649	-3.514004460211196	2.584311545514488
Si	0.1784682123255858	4.520623169291691	8.11786744742049	14	-0.719455689552456	0.023171572476770534	-0.010315274544434093
Si	7.298834387456356	0.6053914108304297	4.187059989229188	14	-0.16565168778756448	0.43990994962456803	-0.47595144689187174
Si	1.659893705536079	2.044951151645435	5.804614272682096	14	0.28989006796243977	-1.6186264987726224	-1.183170474894147
Si	4.6708124702632	13.849339918329207	7.815203596984271	14	0.9029914717259064	-0.7437626621386039	0.400097412184203
Si	1.7549184928807409	10.661889169999835	8.828247329025949	14	0.11077247317113177	0.385339267646553	0.05217724003548907
Si	13.330713160289825	4.751322467178302	4.341598187333217	14	-0.9488363364684028	-1.3370025344144587	-2.086204626968368
Si	12.860963020023261	3.284192934541655	10.567155232463397	14	-1.6934940003689503	0.341409619257035	-0.3216229069342394
Si	5.620381694157291	10.273964775780822	7.624433822769817	14	-0.8533650252785362	1.435908585201511	-0.5491366742772267
Si	2.3707444868310463	2.250581966061146	3.4326509866546755	14	-0.11128746556675743	-0.3386294830743588	1.396771220018217
Si	6.928305581767427	12.74258714807532	2.018940868795519	14	0.8966331282691803	-0.6516911235135692	1.8889070035688247
Si	7.2040727499381845	11.258602176552436	8.988394773431477	14	-1.639066528957268	1.8474875253033674	-1.7206253321492808
Si	10.733895272522046	7.025560217641821	5.366732961402571	14	-0.18103821046545862	-0.7182812086422123	-0.5066859256678579
Si	7.401656719659646	4.768801155653592	10.244131895451366	14	-0.22908754090945	-0.582806583997226	-0.9533337138944059
Si	9.927645754128983	5.129205618018085	12.27167360857585	14	-0.5929012577051913	-0.05386774178348643	-0.4116743281092337
Si	2.5805579984888634	10.414431383163064	12.654210356347248	14	1.1892583380711934	0.11618413564897945	1.728114961946872
Si	1.6791036428698562	0.8985292375477067	12.462997382425021	14	1.08842138718871	-0.6159807846115005	0.06639159579792774
Si	11.507001762768224	1.462545185659372	8.642948301204315	14	-1.4219672808240722	0.3604496825948596	1.3243131012173999
Si	9.336611243832218	1.8009835625073765	1.671278398029493	14	0.09367642256587115	1.7483459612689893	-0.7008887095935387
Si	6.955229964014626	6.164880235137912	12.048854955493075	14	-0.675563065079548	0.6311927292381566	1.2795231609877602
Si	12.593464296400638	10.314794548859393	13.618723720387806	14	0.2386677364428537	-1.0223241829499392	0.7412926012575377
Si	10.022227341765873	4.26269478935879	9.73587878057204	14	-0.31307398174474704	0.29516314786353154	-0.04287138143974511
Si	5.905622256081691	5.931410939077722	4.1063283924602	14	-1.112852029940757	0.27733356091043265	1.855855701788853
Si	2.4848545615916744	6.813696907335555	4.584430077220107	14	-0.7144754585473292	0.12673646610393122	-0.0005376181224429633
Si	11.684669445621646	13.691256122562997	1.6553647585222757	14	-0.19794991281926463	-0.5928544635883645	-0.4217543465168743
Si	10.673550862310606	9.12859823098723	6.496421316533701	14	1.5873582585321737	-0.11717761074468468	-0.43104195026484526
Si	12.69048348243028	9.377510266865128	3.8962240309941563	14	0.37266089020237086	-0.6878568051678361	-0.16727276969191782
Si	13.545623468587028	1.038465390279708	7.881489653278042	14	1.2064518335680878	-0.8319875700941651	-0.1002839061281197
Si	5.407936684234573	8.083796469885456	7.28139724895367	14	-0.8538854169953342	-1.6318743760452172	-0.06578070117386053
Si	1.4451772971110253	9.567947641298753	10.983513657934209	14	-1.6280907374560876	-0.6864162148569571	-2.3082784496749857
Si	11.309556292955442	8.821225383655925	1.5766691104108679	14	0.47418612597905807	0.2222370878944474	-0.04422661105399517
Si	5.520758709844486	0.38671944501350375	12.126470304316786	14	0.055966020835259284	0.31608397474304434	-0.6762559779633279
Si	6.518415102031927	9.580426483070731	10.444582813282482	14	-1.3544333429324025	-1.3023589471097194	1.1270422173131862
Si	11.89437215735252	5.862354884610372	13.639235556863165	14	0.6277101670820161	-0.2177816194851628	-2.8455733841792066
Si	0.9095718352666834	11.778932483468573	4.300671464318572	14	-1.3404113058479108	0.4704431108539865	1.4137238029466133
Si	4.208125825339264	10.992834701788306	9.44146952469309	14	-0.6513016010575667	-1.2792652791241492	-0.6843583021587106
Si	0.0021439785863509196	12.478412422260995	0.2926046020688629	14	-0.753903615742332	0.6865504265546689	-0.8412849440423525
Si	1.533581788820831	9.243857854989892	0.6555020627895787	14	-0.8381137427404819	3.3428572919123467	-2.2039892756791395
Si	13.197185398332401	1.0757066307244043	5.454195653733359	14	-0.35035937976593845	-0.2961180563794345	0.05787043854589296
Si	10.54266844860895	3.3122530160400205	0.04137269272059088	14	2.8702292557572986	-0.6599927083712633	1.0031918169311214
Si	4.411983840923884	12.974103595423136	10.513708117704173	14	0.012238461323904857	0.6253666045827011	-0.810646110384276
Si	5.687471049921399	2.210998692160688	10.445233762853274	14	-0.020615636678011327	0.7493149640774638	-0.008430140123701522
Si	1.7817597751827314	4.144886767036432	2.293793937568994	14	-0.6502135092860801	0.8246223817940689	-0.7064754643436884
Si	9.100925949233165	5.798908076444523	0.6901090349712005	14	0.26684756497274065	-1.113907468674678	-0.07268591873218223
Si	13.77281871878406	10.927739744709175	6.739654856155761	14	0.27911585111835924	-0.165521846968897	-0.335923137614371
Si	7.420922056956895	13.734163394271752	8.166965665047195	14	-0.6182359010878024	0.40381651602979723	-0.4015511151322147
Si	10.274823475214633	9.142808321617695	3.929547109022323	14	-0.23228085371707388	0.4000645020361051	0.3293688759322495
Si	7.755080786626719	11.121182567161133	13.494807852092704	14	-0.9088769889142573	0.7871318095683297	-0.29951602917054215
Si	0.34995048925740285	5.899805259917174	1.1461172142986342	14	0.2767350075919021	-0.2809433927799205	-0.12887536861976237
Si	11.53558814391957	2.926087570661233	4.373882516046291	14	1.0015378248786702	0.4170852192554854	-0.025363696872728787
Si	12.05482430155714	11.59263625630445	3.1478813244197834	14	0.32080915210041255	0.9947948440660498	0.4530521544685049
Si	10.772592147006959	9.144331820613163	9.04767273434609	14	-1.3358041422247378	-0.6516507571600428	-0.36325424427807707
Si	13.427718496328596	7.883456351981283	10.55711398908417	14	-0.9311862126666504	0.746368734491106	-0.08251653992376842
Si	9.817510626747442	1.4273939088366419	10.686029704082584	14	1.5578064882034555	0.26217252416911546	-0.37394027220967657
Si	8.143531480498709	12.323597224339608	5.077849851879913	14	0.7721268389199455	-0.1459084271446794	0.2143782473728828
Si	6.955977863521492	1.8959113999159631	6.597166150106807	14	0.7802196500256436	-0.36978459468072117	-0.044957576296513264
Si	5.909043203826063	4.56481849015116	0.07374427637613355	14	0.214537913013264	0.17776159384546192	-0.6977097949757075
Si	0.559308336215666	1.9838311419453922	1.8997478473863714	14	-0.5479277405556932	1.1535024906049582	0.28963964230425737
Si	8.498589846388192	3.1655954627398275	13.08131637473155	14	-0.5990138034933113	-0.2810719480459279	-2.5171367910360427
Si	4.497756834368789	7.926626773516528	5.130978416849177	14	0.6000779839853205	-0.6450322178449177	-1.0364086978937104
Si	0.976205526331237	4.116840535528935	5.816012815166379	14	1.1621478322439562	1.4295494704131886	1.6733218793586646
Si	3.272614342176091	3.1642935635982448	10.729574075371263	14	0.9058410277522265	0.8023730647956355	-0.22923717923908257
Si	3.2304272699924677	12.757711338103066	1.679283692751139	14	0.5083795127422394	-2.5256378936665804	-0.8584234178853956
Si	9.225603567025999	12.242380877890243	8.02771785686133	14	1.1775904050178296	-0.43700922860237684	-0.6978139247411737
Si	9.437674627195285	4.568654937621569	6.716525371406369	14	-0.3856845670910489	0.5628946588453391	-0.27989926690940836
Si	6.010286637070412	6.044565364468465	1.8869920057970355	14	0.01863177181298507	0.5607174468602376	-0.8909975225179477
Si	13.024434462237084	8.709303607452425	7.707893867739783	14	0.4327975009774424	-0.47199554424629186	-1.313497489577665
Si	2.8058834999187288	13.101592761362156	5.614079948312397	14	0.5793253073937453	-1.584764013264144	-1.9884422038277176
Si	12.405741520177124	6.458929391254297	7.088120626392125	14	-0.1701212972761099	-0.7454547065497933	1.8827026693207756
Si	4.322554449889854	2.864981410952058	12.868525115037134	14	1.0399154284398604	-0.7603704598435684	0.16647855525852406
Si	7.530572434658059	12.299138140466896	11.42676876567048	14	0.0940695445693218	-0.19859037515451353	0.08795931277598988
Si	3.647519744979276	6.095339430990186	8.069821829099746	14	0.546639359679767	0.8623309837509567	-0.5559907268396774
Si	11.701621834443955	12.501694256909934	5.59644890993756	14	0.38509784085699117	0.4926649170254943	-0.42699914425944435
Si	4.098918647345873	7.240290476057743	1.207699813693665	14	0.48531155580987073	0.10135348594130131	-0.9459494994149406
Si	9.075649715899248	13.58598234197609	2.4068652630145295	14	0.4735009264112386	-1.3433583067658648	-0.010844150908788553
Si	7.261841061848196	2.7653445766483857	1.0155145704125108	14	-1.1933389393248006	0.16428900196788598	1.4240182515379542
Si	12.252519071205544	12.766561482267653	9.155176363462727	14	1.0565196265973769	0.30904840214499124	-0.6856605670033655
Si	4.689523807925732	11.225874648131589	5.509595617204959	14	-0.5824049773462188	-0.20426197638022817	-0.22846970430101837
Si	1.4099706203248237	6.394429983782486	7.303931184095744	14	0.12151043743019822	0.4632167622411783	-0.45639587693735745
Si	8.673542931031506	9.812857029815827	7.176303518248044	14	-1.217081040072112	0.791462065148523	0.8708554834399077
Si	6.136016854169208	9.750629020846354	0.995537343584652	14	-0.4191960967233269	-0.2313097472376539	-0.2167449498200791
Si	7.375410986964976	7.1723839708324295	8.077356224131883	14	1.0776448563498415	-0.709888349545653	0.12150555233008996
Si	8.294814930748782	8.901112130981971	12.896003496919047	14	-0.11165873317498681	-0.6540789090243907	-0.09445135370936379
Si	8.80575494385648	10.307315553790726	10.083721301219349	14	2.421581147591675	-1.00639849948641	1.3702145302769393
Si	11.37447120015329	3.2789160880209853	7.153423333334274	14	0.34650889243848465	-0.18082120917643815	-0.4749723699859593
Si	9.401193751249236	10.543388648134082	1.1082277942813203	14	1.1864041540552972	-0.027323393347745646	0.5470376238938578
Si	10.47005294648855	0.4385391858457516	4.182475642251913	14	0.27500542504303854	-0.6533386878027201	1.0176897656103723
Si	11.755955348618725	0.9336375793987465	12.411780116195528	14	-0.3881962798783016	0.535077099055061	0.2451024417275883
Si	8.05541783859713	6.37185449866781	4.9082151637298725	14	0.950019302026203	-0.406486351794239	0.1704411427779363
Si	1.1178369179454692	2.7018008185464604	10.109413034279303	14	1.2417291983342436	-0.4162552664581416	-1.4192653062431284
Si	8.13278388758522	10.696915796904754	3.244734310559008	14	-0.39909982331998556	-0.7662950578327856	1.0452494435370396
Si	7.5902658952987085	0.8052772490341361	10.417866180898304	14	-0.20917741553128724	-0.6699737392240781	-0.279128963755492
Si	9.369560372106953	1.888404704865561	5.974706010530777	14	0.10959156449758777	0.237926229668523	-0.1235346686487508
Si	13.798898251588316	2.575627401739891	12.725316209463047	14	-0.11525519529680994	-0.5239696669614893	0.5174058921896832
Si	11.880674516384166	8.235135320099	12.565404214902275	14	0.139269318986993	-0.525231565452618	-0.19701043093528253
Si	3.8816538406011256	0.6565629720900598	2.7480597880452464	14	1.6841626878305371	1.5698960825293238	0.9620903843937663
H	7.188159110430968	7.869869510939873	2.4451327877825375	1	0.629759338022174	-0.33934964967453235	-0.9068332172952718
H	7.418304408682862	9.39385325608925	4.12202043211353	1	0.41521911101412196	1.1841140705466413	-1.0073485229022048
H	13.197767097948852	4.542741604707728	12.15441958588821	1	-0.45654114438794574	0.06335332064110875	0.28226571224607266
H	1.8447910836225443	1.9191932345649028	8.591024685440559	1	-0.1301688917063289	0.15395418702301877	-0.2576031557941483
H	3.390768614270146	0.8802541745975127	12.280440652795232	1	-0.86954139151078	0.26531055821235616	0.0580031075804126
H	7.863872464894072	5.649535924934221	6.966767006407586	1	-0.5312906322500788	0.3740086636111925	-0.03597773385536408
H	9.847260407131692	2.7638349276437846	4.533143561036273	1	-0.7026002944051613	-0.10292031752339954	0.3526474063903382
H	9.240201457400767	8.779813910960902	2.4293853481657353	1	-0.015021168611901121	-0.44355706252119803	0.1992025553312408
H	2.4837881122948464	6.330623075854072	12.68943088312432	1	-0.6015376004755687	1.3275177268884324	0.6573393276808706
H	2.070061185088938	1.4353438035948165	10.126531622992028	1	-0.20735990118047457	-1.050170024898739	0.4732422732160317
H	12.351671155828841	7.3544144008092385	9.2566690965427	1	0.6860287492852108	0.3461484234725999	0.8970542753206204
H	8.624887913112573	3.7203983969261656	8.94919929927532	1	0.5603875740476627	0.09107497820294533	0.039546942260793645
H	5.891592215332508	12.015199477684078	11.207855810012452	1	0.3299342619921501	-0.32702222810655035	0.6111684467837794
H	10.570534630235166	10.15262500578715	11.444247454145769	1	0.44086331547727886	0.2945458254761639	0.20643481748628528
H	0.6003680191426424	5.904888206565693	12.938966168591273	1	-0.279424640867309	-0.005766217901496097	-0.3145053160764734
H	9.098114401086981	7.841740179487168	4.563184191228748	1	-0.4238729373006763	-0.06455454104668192	-0.19492732140489855
H	6.043083415445599	13.196229748962516	10.114689880799974	1	-0.6755926327907298	0.4202582203310802	-0.573329232676628
