72
config_type=amorph dft_energy=-6947.5574685212205 dft_virial="-9.746251739897144 -15.826182171006035 18.40832887664661 -15.826182171006035 -22.024340459070704 0.20501213493395723 18.40832887664661 0.20501213493395723 -6.401912679839523" pbc="T T T" Lattice="11.105996452100001 0.0 0.0 0.0 11.105996452100001 0.0 0.0 0.0 11.105996452100001" Properties=species:S:1:pos:R:3:Z:I:1:dft_force:R:3
Si	-0.4384047675480667	-3.2801160705405077	-4.535959937351072	14	1.5800648040705094	1.9611067262849673	-1.8450120651011286
Si	-0.201838158321175	4.689642495055941	1.599869876508685	14	-0.03359534766571487	-0.8963305091729988	-1.3616913161406485
Si	-1.001866386945715	-5.252698745583088	-3.776891734241522	14	-1.378902552264252	-1.3064313208263019	0.4815795964376759
Si	5.11325407532981	4.4256862773788805	0.8299411194686263	14	-0.9872468501776911	-0.03961636210443765	-0.47255553098502007
Si	0.9017080685420964	2.711487941593343	0.5131036996848913	14	0.9926279165022289	1.1829951255113127	0.2248277336150286
Si	3.912102798647258	-3.3755876584413405	0.6552560118731905	14	-1.5132698018478503	0.796736173491743	-0.19284781142196278
Si	1.6484019704047166	0.3578818508717609	3.3164326789388747	14	-0.6141038777277925	-1.030286896126438	-1.449170089332303
Si	4.824360453219205	2.5700952795623673	4.802452764617792	14	0.18312800486967498	-1.205427505208541	-1.3442008579792775
Si	-1.1554067878959975	2.030344962589952	-2.4031854800830463	14	5.618245905221467	-3.2127660475866864	-2.23378504390274
Si	2.371112472929027	-0.3377189143129733	-3.9201613096729018	14	-0.12941350096326937	-0.4746103583568825	-1.3676789062102093
Si	4.293879200885712	-4.856226888839215	2.375431594949249	14	0.610815176912791	-0.7583760534467294	-0.6912753468015049
Si	1.9753947133442518	-2.6998144287225405	-4.374873011811587	14	-0.8989082993669791	0.031845196274290076	0.7982423269882856
Si	-1.1830029678801757	-1.5267102354801214	-1.5810307747269876	14	-1.05237526193183	1.3988347891481678	0.019461981720860885
Si	4.719453210732668	-0.4610787699046741	-4.051483054121113	14	-0.40633208547503014	-1.0456816463413565	-0.13374169965920665
Si	5.4626798205029425	-1.9184342787407211	-2.2903641045247434	14	11.476707352288516	17.10410922066556	-7.328452861502974
Si	-1.8755207084498071	-1.6398647909319874	-3.797025795209534	14	0.49654805739051394	-0.23990495232290895	0.23898603928148807
Si	0.4826965919986867	-5.5238616443579165	-2.0331503372937525	14	1.3100198125216327	-0.49088674058607984	0.27240115246426055
Si	0.913848033263887	3.0100426700176306	-1.9977377570065864	14	0.9887324348316726	-0.23219009369927268	0.017359331790043783
Si	-4.153639341286465	-4.791520021710345	-0.8099225608637158	14	0.11123707190248254	1.490423217083547	-0.370285188886554
Si	-1.0766241808637358	0.14764200623457222	-4.976986830661479	14	-1.662635337206001	0.07366242453277448	-0.924932256085922
Si	-0.22543395838330668	-3.055057494837282	4.054188474856845	14	-1.4152662090281702	-0.05608197768519796	0.33225211343826355
Si	-0.8195614551844935	4.560880682789938	5.369504952668405	14	2.967228060617865	0.3145875914467182	0.9339100416428151
Si	-2.7429645567378844	-2.610261226331032	3.579755854818166	14	1.322787664430956	1.4705305752215612	-1.2873948570359255
Si	-5.008739985117678	1.2175037458586242	-4.778737019793978	14	-0.24170189783116044	0.34856911913151933	-0.21550619127683177
Si	5.459899989590982	-0.3117164448196716	2.879044110066175	14	0.47118461762831715	-1.6825603749950206	-0.04530698950952139
Si	2.623890505177049	5.545248461725725	3.7776302830055863	14	0.5947683943886828	0.33257067338742996	1.6713886652684453
Si	-3.8452746861960367	-2.8600750681259886	-3.7407772549785827	14	-0.601908096752202	0.2047124340323181	1.422817545353445
Si	3.7556204192368146	1.1688483754019743	2.917147673293685	14	0.7028252661206742	2.4017419847203487	-0.22293025788875934
Si	2.1581827559511395	0.5235988663321258	-1.8589339027485956	14	-0.54916007133564	0.943179133432481	0.4573194179683547
Si	-3.2512771295533396	-4.976236065301317	-2.863631208189951	14	-0.2285206121863573	-0.2213670258541093	-2.0354214402374633
Si	-4.289799968388856	-3.103494077163826	5.146680903451341	14	-1.4684387239330885	-0.07644230360491858	-1.0251912224924364
Si	3.919261723960282	4.807501550604917	-3.7321856561232383	14	-0.5031601689423387	-0.14476454238774547	0.6702629885725949
Si	-4.869280877069014	2.988899073972122	-3.3549660442290814	14	0.8688556777218965	0.5196298982916112	1.5347853253879138
Si	-3.1403782019808952	2.912995141220245	-1.5151988701575194	14	-1.7303415391541206	0.43169243991084266	0.6684742706013678
Si	0.9782883564779067	0.748506400483603	5.409957434145533	14	0.7362676330198402	0.7696333809804659	2.218119299187077
Si	-2.208652846228063	3.4531397210667096	2.090982592618773	14	-0.2566341061989844	-0.2979885354998422	-1.1806217381902844
Si	4.520774708402115	-4.3385797260057695	-1.3574615131479886	14	-0.6446776624212692	-7.166333615314762	2.177690467801473
Si	-3.3863626961991677	-3.1725544949019193	1.27330138263362	14	-1.9594290800635707	0.7428306364600502	1.3750309818731727
Si	1.4887610456032956	-2.6633767649628455	0.6561567081854558	14	1.2608494801580568	-0.42359808614195255	0.6013689359665669
Si	3.443588564117903	2.6998510785108323	0.9117190137440193	14	-0.15685053716616557	-1.3358043993352695	0.6440737097815664
Si	4.54126971425482	-1.3962369891608506	4.903550650321258	14	0.7326945679564304	0.37663607613785177	-0.8037982284745935
Si	-2.342185794569887	0.9078319149857843	1.3002922858111585	14	1.072535298747111	1.5489716561023628	1.0784897215580418
Si	-3.018977444163345	1.1830029678801757	5.090628939357592	14	1.1415216540341322	-0.327623352530401	-0.5323180459360102
Si	-4.679110678620415	-4.796182319020937	3.350734659580831	14	-0.46379911759619186	0.6130756927102652	0.2475316220340642
Si	5.478443671867053	-1.711608417412908	0.9398005257731542	14	1.460670129208261	0.32109068813296876	0.38055392642469343
Si	0.9423726745514606	2.971825825626309	-4.501231486445355	14	0.0703919785655461	0.14010467110550914	-1.9085106531928258
Si	1.6402401736120684	-2.0158194298302505	3.0213052610197053	14	-0.2422006922632692	-0.4092508042344622	0.45567416767399194
Si	0.059041698338654025	-4.504003543159799	0.1013411070257673	14	-0.8617226602322097	-0.43597101627410106	-0.3440059214093205
Si	3.0348368070969434	3.738253972584666	5.471726765212823	14	-1.2777131028423758	0.9608359421080659	0.6198029897804327
Si	3.081266535864593	-3.1505557371296	4.761933647161951	14	-0.8950290156599398	-1.041524169038677	-1.5688786961541412
Si	0.06257673700935745	0.720561492210829	1.4449701015926653	14	0.3275909566033672	-0.34351921117221645	-0.6939729505034044
Si	-2.457511572328139	3.4610782873306705	4.446190168028748	14	-2.114463388431583	-1.4466768885033552	-0.7266596695489789
Si	-2.8362449315387175	0.3970960137444807	-0.866229962875863	14	0.3076679756986037	-0.011705728301570174	0.11932756901339252
Si	4.137829955336901	1.1540274231366467	-0.8452474037789105	14	-0.9590775631796167	1.6930497133696285	0.19029933182863204
Si	-2.0004842699291907	-3.3378916852836222	-0.4579357729087297	14	0.4868333930488664	-1.1928787114724941	-0.14860680217817482
Si	-5.154851585041151	-0.15029744998626932	-0.9520837578491768	14	0.6978638041843844	-1.1743353856825223	1.1853302033630713
Si	-3.7166850168750423	4.447020896563364	0.33023791510283873	14	0.5520175977884526	-2.020619329798839	1.120837625954605
Si	0.3521700368964458	-5.305283417584491	3.474150045154792	14	-0.6528244667386905	-0.03812769212407191	1.8012266557200711
Si	-4.659548576469685	4.3317317685934045	4.571924485661907	14	0.13715484197170325	-0.35846504639823723	-0.14552301845718915
Si	-4.992734023030912	5.085675664939956	-4.362577563139467	14	1.1641147278138695	0.5490623693334744	0.48927362910821903
Si	0.7591348390882626	-0.7649243950387424	-0.5514327146403789	14	-0.19148563982334835	0.4306938226044972	1.248699464857165
Si	-3.2928868558607776	-0.15139028003715596	3.0859721465613474	14	-0.2540781704002253	-0.5396788633570619	0.9663206239770057
Si	2.509673105864717	-4.56165699194194	-2.9894177240064357	14	0.4995850469946729	-0.12808218262849672	0.6263958180423563
Si	4.707014494706316	3.4486884376887077	-1.56173965888969	14	-0.6549610552597335	0.35497682781039236	-0.8369192072087411
H	-1.3734741388326264	3.091616213958305	-1.6299793434899732	1	-1.9090477570942046	4.239803580809522	3.5941201019870097
H	-2.451799758352824	1.7305063809758015	-2.4372298016073137	1	-3.6156055435948273	-1.2530870560859977	-2.038438889441189
H	-1.0697584538570475	1.0824292852092483	-3.7909963497356887	1	0.2880417003477853	0.24531764324288471	0.23357180569832023
H	-4.038233600353758	-4.770951716281056	1.44147726570848	1	0.2860524361615868	0.639741140206585	0.5894258946439471
H	3.2859522716760865	-0.47009350722484367	4.71407124485198	1	0.10080944005555798	-0.0463194907845957	0.027395384296709797
H	4.402112689309653	-2.973609448656516	-1.7630935957655531	1	-14.251289947473113	-1.2204448171624618	5.31306984479915
H	4.914129111941884	-2.8290204808466264	-2.0000689056618826	1	4.053140820345707	-9.105757439103325	-1.9340036766631579
H	-3.2224903867494965	-4.074694586706002	5.393383955640065	1	1.1045905543260572	-1.2012340324313795	0.36193989523841735
