72
config_type=liquid dft_energy=-6930.9291818518195 dft_virial="-35.627978440282476 -5.9973918268381645 5.0276346328365 -5.997391826838164 -22.068600188087064 2.3197333971269334 5.0276346328365005 2.3197333971269334 -26.355668876323936" pbc="T T T" Lattice="11.2999927403 0.0 0.0 0.0 11.2999927403 0.0 0.0 0.0 11.2999927403" Properties=species:S:1:pos:R:3:Z:I:1:dft_force:R:3
Si	7.174794790540601	7.365866367786334	1.530697016601038	14	0.11345130780419406	0.05056978498933249	-0.77224099599616
Si	9.028897599369026	6.223211101887198	4.576949059531112	14	1.1539593760203484	-1.4944356840461699	0.6891487855912105
Si	2.6653518876400417	2.167677607371749	6.531700903697388	14	0.3855326147666282	0.20604246681443072	0.12438107652014355
Si	6.113442972407924	5.502034265208512	5.131665703152439	14	-0.36523605225884725	0.17983621872828942	-0.9308686811596121
Si	6.948761035756381	6.0599940067463045	8.305415564171318	14	-0.010641547809560883	1.7911085849536923	-0.282514595241063
Si	6.993802806819217	3.028431954378621	10.367652939283328	14	-1.1566788341174692	0.24565677203461228	-1.3120293884398604
Si	9.600383432216958	0.9912500531696784	9.083092364551504	14	1.2441861465781772	0.3048238189934559	0.07231285135022876
Si	2.2790051358491845	10.688324133267562	8.564015898033084	14	0.6922207422277235	0.4566154493316981	0.5152811307531129
Si	0.23680490786427488	9.89238654461905	4.2002412015477315	14	0.9199044596323726	-0.5933946528161278	-0.022218720845123656
Si	5.2880802026636715	7.514257872451954	6.341431625936218	14	0.0065771445194708	0.28715029813329	0.39798370650050924
Si	6.676193910867604	9.800280303792865	3.2572116073987347	14	-0.08595667884212654	-0.19460747590307212	-0.3665470588615907
Si	10.456403082265645	8.526850221910237	7.776508103968836	14	0.08594433753658984	1.9006065612176266	-1.737887476158223
Si	6.281112264688495	1.915687769263059	6.931991846529775	14	-1.8068756312189684	1.5488235604359222	-1.967792371448948
Si	9.167492010328806	4.271126056007633	7.9794785735701055	14	0.6813786482031909	2.087353911046474	0.9636759850447015
Si	4.587989152438386	2.9372410129644004	5.100025723479599	14	-0.3571702377590107	0.01164402177388662	0.44234015837317187
Si	7.911531717222681	7.758337715642434	7.001181702078632	14	-0.15710404815073217	0.5103615778335415	-0.5248798382448218
Si	7.4497236139121	7.644953588486263	4.053555995785897	14	-1.4508474784431673	0.5684940120115576	-0.20398763944256834
Si	8.965911439834594	2.4657601158681226	6.847015901122719	14	-0.42712898507811187	-2.2749492114099064	-1.1541522089193597
Si	4.732267459746536	7.255341138793461	1.8602274048936667	14	0.7405963459368415	-0.5456052611200034	-0.8962538902344585
Si	6.7121391877745	4.207665296778108	7.089265145489271	14	0.03995831911201734	-0.9877425592834155	-1.1785594546129934
Si	2.808183795877434	4.751161047608318	7.206931969894015	14	-0.04585669182696905	-0.5513761070110758	0.16794305684888045
Si	3.9076617895158834	0.41618438262161916	1.1251888671204544	14	0.1999810860221816	0.08280398949856096	0.4508371472351973
Si	0.06245957987273422	7.629223998591766	5.770725492587366	14	0.5427590475305993	1.785083713856989	-0.6698639530269078
Si	7.068021159137507	0.7674830769291617	2.290723228320876	14	0.209034462075487	2.869916095129305	3.4087482935044418
Si	0.0351316774295927	11.03292871187575	7.767276009900011	14	-1.03977247498406	-0.8452935543469955	0.9104936999395665
Si	4.7093849744474285	9.258321351975336	4.740290454592149	14	-1.0255537483425772	-0.417980992349025	-0.2381136632463618
Si	11.278002954427377	11.22464438870768	1.4203638874847488	14	-0.9734492705876484	-0.757917111147083	0.3417603180227032
Si	0.5781573485618053	0.08006722856066968	10.406378014404337	14	-0.2861005158310735	1.0477004782387367	-0.7729351944326001
Si	2.900888936318855	8.085065705735468	10.05807833817007	14	0.4999218617916122	0.33744908862187883	0.030738335433966327
Si	5.2240092438261705	5.2314220390638075	9.611468725095193	14	-0.9581002860474285	-0.3748805254252547	1.2194372009874959
Si	0.5933795687822635	3.86082331960734	8.010474453656748	14	-0.438208649234226	-0.28204331163587987	-0.6803157532638417
Si	5.009896981382966	1.2582654916251454	3.3520072464971116	14	-0.8211881564179471	-0.29587585825827656	-0.6044897436041627
Si	0.8246779901841902	2.5757090452312417	10.073604528195242	14	-0.26818891061826194	-1.0930527192018926	0.09813060542249569
Si	11.109169762894554	2.4826988049858323	5.693241442367128	14	0.7525375874857373	0.4947125453024602	-0.524173041392313
Si	10.341753355922561	7.2486289431057225	0.5543505238565413	14	0.18049236480599118	0.17293717182273605	0.5641994947953143
Si	8.844775517658578	1.946796649277105	4.175878417199645	14	0.22102198352014543	0.028406600019124036	0.27855252194271485
Si	8.77707726115144	4.127717848140486	3.3140844708606645	14	0.6207733249282565	0.6809577582622828	0.2458172090065895
Si	2.0151729053486602	0.3557938314196339	2.615078219938447	14	0.05813397684120814	-0.49018020084410313	0.44964698258250074
Si	7.340430084127918	10.845902532031044	0.6316910641689766	14	2.3951291018369276	-2.315512768714287	-0.5308316899504324
Si	2.8705484558111496	7.162195298635168	7.7795026020450155	14	0.382317447563783	-0.29811580521318953	-0.20655514521526822
Si	1.8799458922254901	8.671365829065934	1.683100018689464	14	-0.9339506651068735	-0.05434005383079763	0.48527298923006856
Si	6.031879624808439	7.420874732446116	10.565052512463629	14	-0.37581049421955226	0.2958681449423161	0.19932314017075572
Si	10.050224843215561	7.311253502872464	9.537465072638968	14	-0.2663443996615877	-1.4676949031639699	1.076697146928835
Si	8.333970645826057	5.295775497719816	9.922229825446182	14	1.2612937671573783	-0.5344433215936445	1.2470637276524867
Si	3.3255087635211082	4.2147277922407955	11.176879319394432	14	0.34529584494843885	0.9176030632603079	0.08100267311126523
Si	2.3934514623229433	8.062058920516218	4.328982018837969	14	0.053865170678166284	1.3155590018233596	-0.9893412725714836
Si	1.5786315858053905	6.4492674566569	0.1505012133102336	14	0.3498171336539192	-0.35230724915648265	0.2857112504856031
Si	5.454642095655694	9.152372620042284	8.628414556660053	14	0.16389922240135155	-0.6635801716244659	0.6867044357633457
Si	9.04828838691138	4.399742573377727	0.9320347012126843	14	-0.30888976494673803	1.4423129514434678	0.7618989819563965
Si	4.104405963117246	9.406328656887787	1.9655546372260029	14	0.07745403354839685	1.4426927036992538	0.567493594931488
Si	2.9747004888984945	2.8760176522974543	9.163774312717246	14	0.7646284673642657	-0.08219977974832618	-0.3012021600394953
Si	6.328707834110639	11.026239116173493	10.079627424325821	14	-2.2740956044436174	0.15595296429890187	-2.8528822652727914
Si	4.115400856053559	0.8082398907448757	9.90551713618328	14	-0.4151790017711276	-0.29231873404785164	0.5839196154903179
Si	8.561089199913347	8.903332080038812	10.90147589632784	14	-0.752080959180879	-0.48725016922126246	0.8559798393891269
Si	1.9307054596149178	6.064050704140072	5.385440940114097	14	-0.5491109632240253	-0.39242960478792543	0.07727045662853828
Si	10.44153229181941	5.755933802090313	6.53214160341426	14	-0.7352098802911313	-1.7606147616356722	-0.13783927020792663
Si	8.97481583411395	2.4071244535387057	11.188427911975019	14	0.968580625553416	-2.0613541227175407	-0.33768434475867243
Si	10.975389148842142	4.370181792369102	10.991988838177644	14	0.8921105540110399	0.6795955866636683	-0.38183716508997934
Si	1.0514383345016123	0.35059470475982185	5.791099379498126	14	-0.28372507162578875	0.3034768169162303	-0.7926735699753769
Si	3.32520366371712	11.23629468122293	4.98933099459562	14	0.3866322765120555	0.5932427004917069	-0.9919401458290893
Si	4.623109529875238	5.061933447952048	2.5579115566652693	14	1.886996929426487	-0.07381309130453516	-0.4545629359546239
Si	0.871525500086926	5.970859664010818	9.211946181769145	14	-0.3055164747667038	0.2205596987835828	-0.2759798739593747
Si	7.410173639321051	0.858829958243199	8.363791326667709	14	1.1192204007082318	-1.0665281682771173	2.527729744955053
Si	0.5298724795825034	4.425506556825612	4.255837165830007	14	-1.1660494845672809	-0.47590311011185293	0.5805656086001848
H	6.526435107080409	1.3124376568221436	5.581111614405131	1	0.21164079153852114	-0.262650235537599	-0.5154623936781834
H	6.376224303583601	10.176626562008558	4.726086363717592	1	-0.014058032558973652	0.37102206767130846	0.7728742592365125
H	3.445209586619106	4.427472755562424	3.0775191228424843	1	-1.6388482421155872	-0.34808292311547934	0.6999895940630829
H	9.354269590333224	10.992542537821917	1.430014081284965	1	1.1227530994181154	0.16142479064124102	-0.12283352822794642
H	1.8093322375913556	9.723429053166086	9.707123163641832	1	0.11157902891006223	-0.9827384169988114	0.7488812186099547
H	7.087999546302357	6.189582323492066	0.3145115679414959	1	0.18851318496272515	0.14093436679232088	0.411539345079926
H	4.028967211583003	6.116663470338909	8.924881166194565	1	-0.081589142234791	0.1430406162705862	-0.15592339658772017
H	7.925227308423924	2.284327432429866	2.2816380341576745	1	-0.25557532502814745	-0.6611273371490446	-0.13397412758014804
