72
config_type=amorph dft_energy=-6966.963861576033 dft_virial="1.1307060484157314 -2.026215176860671 -2.026215176860671 -2.026215176860671 7.362795558871737 -9.517299964807385 -2.026215176860671 -9.517299964807385 -9.57641362918507" pbc="T T T" Lattice="11.105996452100001 0.0 0.0 0.0 11.105996452100001 0.0 0.0 0.0 11.105996452100001" Properties=species:S:1:pos:R:3:Z:I:1:dft_force:R:3
Si	10.695518823230385	8.065241259493733	6.3991307777461435	14	0.0676169845935103	-0.14601872756291373	-0.4296520107287732
Si	10.877112971218672	4.748568691031493	1.6832803522625368	14	0.47703542489484624	-0.7018266488143285	-0.2193181120244833
Si	10.040964710332966	5.839055376666741	7.083171311223887	14	0.44097387300604524	0.6602606175456228	0.8122206552823347
Si	4.96840078480436	4.122434823054999	0.5191664631480928	14	-0.23776347870175765	0.4525459038309677	-0.03103632654057149
Si	1.487192878904259	2.959814690463363	1.3502004126676055	14	-1.513971713600251	0.5591269611091941	0.2534623906760498
Si	3.761589892329818	7.947717605037612	0.2450982357013949	14	-0.9523862615839314	-0.3777709620261651	-0.5903525210013284
Si	1.6291941495408095	0.20512109087241576	3.2955822811997018	14	-1.096319051400609	-0.10893850374627015	0.17301507631393656
Si	4.638819234091841	2.8971657644770668	4.483757311627621	14	-0.421002041100199	0.08776853676123489	-0.03486238836748385
Si	9.892710763693884	2.357525396869528	8.201689531904234	14	-0.2839780683892913	-0.10912619443464096	0.3117519193891269
Si	2.4376773732643335	10.818806489845148	7.0049406722152945	14	-0.9243676413576176	-0.17101449926432932	0.34047193714677704
Si	4.086884528411828	5.598388433549733	2.300562741066707	14	1.4748700867809068	-0.045229599239384924	-0.3432564442084973
Si	1.8643747304104792	8.54034468171812	6.798002640323316	14	-0.4193236235472063	-0.21252010955801182	-0.5137441239927283
Si	9.69145900198538	10.048461257938134	9.802396800545408	14	-0.06928280373043424	-0.5472029459659433	-0.7096942310939818
Si	4.667750354849562	10.447266484536595	6.714818726897087	14	0.6650325890198175	-0.9693594133548888	-0.3519472944116619
Si	5.702707058224309	9.191167179807632	8.569897738277158	14	-0.24722668894309469	0.09426289168939693	-0.6287712622476412
Si	9.388931658630176	9.7047861977279	7.39891479035709	14	0.04655706091617738	-0.5938998750115368	0.7676148061936177
Si	0.5278269191814403	5.358154624294358	8.92435672104238	14	-0.21116565127535777	0.3098621569788181	-0.1274705166728335
Si	0.9815835056252448	3.045019895243874	8.766018529624791	14	0.5931892215010479	-0.036047153699008086	-0.6138102575002315
Si	7.3564454599242595	6.311626631700048	10.320413793060707	14	0.32370884468047556	0.3207718710732704	0.329498716750917
Si	9.739059302779081	0.6528093608547929	6.481859345317837	14	0.12088925838485043	0.5634145363410731	-0.1781709138124295
Si	10.462581653644039	8.15719891011712	3.982199405854333	14	0.9319410891886458	0.03605486701496853	0.27012880958231367
Si	10.470078201249208	4.44207650694289	5.309266027912214	14	0.748348228477088	-0.3518066549506498	-0.1074097245229101
Si	8.283085379901674	8.76770664108551	3.380065596210827	14	0.07369636312300043	0.04711087700213728	-0.2995103727388379
Si	6.24791153005435	1.040689618743321	6.701635909108443	14	0.5536193964029048	-0.340367807381311	0.7652164791509835
Si	5.387141275034339	10.57205346067239	2.9126142055419377	14	0.7096011570813924	-0.38929825561851705	0.7869731723700766
Si	2.531811799192333	5.908001402641378	3.94188463873321	14	-0.9668423012464639	-0.6408819396371346	0.6561825873973358
Si	7.494237557905463	8.259451819451607	7.280025098337359	14	-0.24829909697212843	1.1171100374614544	0.21458522135115474
Si	3.7863895824073577	1.0781979005609983	3.0774938288698146	14	0.3324919975646334	0.8611408190982601	0.3665961669732055
Si	2.46346549702611	10.949313054153775	9.355324913366122	14	-0.1567929444069943	0.010749277122475089	0.1587888934670252
Si	7.859713689151171	6.108231412676288	7.914133071766461	14	0.5980948904518903	-0.04759501613392116	0.32227699612768507
Si	6.82743353092138	7.91237832432703	5.048408383245289	14	0.17767134804872473	0.10390556508208029	-0.677643603504612
Si	4.101455595756982	5.3222156197753625	7.677031153510577	14	-0.4541898685726704	-0.19575753131277437	0.30854343706011406
Si	6.153066320353417	2.7971007364436455	8.200945430141944	14	0.2696099605287078	0.8838588485965566	-0.46286143548593384
Si	7.967775034630104	2.5123207754188974	9.625866986939277	14	0.26505190501714926	0.46130977342522445	-0.7411905283763278
Si	0.8646584643778907	0.8323277981061824	5.579930267446343	14	0.36636142505747604	-0.28528110456554234	-0.3916515883180486
Si	8.882353842460539	3.4802750021981255	1.9172170615295712	14	-0.4878309819130838	0.29281881403262044	-0.24055132820039418
Si	5.190909423722184	7.009116526881283	9.503912039898768	14	-0.6564592383297838	0.4561770758746128	0.4695555652974714
Si	7.097886756522919	7.694667475876512	1.5170791153568601	14	0.27490566615661677	-0.3724006943439718	0.39399360815417145
Si	1.315838459644808	8.272779015194127	0.8304220091150022	14	1.0833377977497132	-0.12424197972232352	-0.6006163734393596
Si	3.7052824903176713	2.356470327206578	1.184787701510028	14	0.10681168542544366	-0.6415761380735746	-0.39772556752636645
Si	4.885727747214928	9.088014684760527	4.723968908890091	14	-0.09376152615196806	1.1044383448911046	0.17422066759855398
Si	9.028253317851776	1.156023170699089	1.6935089749949208	14	0.38544545429627514	-0.403430850231775	-1.0456253391348453
Si	7.916476437017853	1.3115848630036537	5.1023835260024955	14	0.9042397433588384	0.6450083065654404	0.26176474686533996
Si	6.16287291522062	6.35040877131078	3.333775802998474	14	-0.36629663320340833	-0.14276962176984262	-0.3622273448132099
Si	5.4154171420013855	9.274917499052917	1.0252567260734828	14	0.4712393821716363	0.7880486657254946	-0.25169989797908826
Si	1.227190395964146	3.035857448170892	6.260527942023935	14	-0.7232347001520096	0.8517693973168525	0.34148212442706316
Si	1.5143470402296435	8.957785770363202	3.0961074789235346	14	-1.2947495038042092	0.6183639421327457	-0.00738832824797752
Si	0.03404876392284818	6.325353643314844	0.0649256552589766	14	-0.118624628818864	0.8510096356947486	-1.1456040550614635
Si	3.0702082951972374	4.306116898376281	5.575676670805189	14	0.18676714733981256	-0.22925749097111175	-0.04791794696213176
Si	2.800765715272839	8.02979091881863	4.7169499191323645	14	0.8241657534892106	0.08316111602752953	0.09601998506518612
Si	0.3312774363707553	0.8792406377194981	1.3410046476052668	14	-0.14906677291994927	-0.11120904685449291	0.7372150853303149
Si	8.575928294350648	3.4949015995255412	4.269667018020489	14	0.10428223201148198	-0.6123544976679636	0.054430042517002813
Si	8.161297022807947	0.4912115594785118	10.601384397302386	14	-0.5405265567811148	-0.5065350017855652	1.1967237994787756
Si	4.045003815790958	1.2957032880771508	10.258264636914756	14	-0.18764877935409136	-0.30270908486763404	-0.31860622906210967
Si	9.452358004368119	7.718367672305294	10.181577731413006	14	-0.645141232710492	-0.4498554992239648	0.9003527463358385
Si	5.911677487467022	10.833977280998717	10.348822931985179	14	0.32705925202316055	-0.6130741500470732	0.1293962745576244
Si	7.297183862855854	4.091493516939449	0.11820667323792637	14	0.8433955643996621	0.33596196130470524	1.018533088155381
Si	0.17001503608732765	5.944540130968787	3.647375824816422	14	-0.13174035127800338	-0.6314827499182694	0.23760895527201673
Si	6.501550277027409	4.390955605273874	4.572460905290543	14	-0.33965226877071375	0.06360297496769513	-0.29931419740291054
Si	6.287271181480593	4.840126525782606	6.860751520277679	14	-0.2462836075116643	-0.5942783417146625	0.26844936358719296
Si	0.706933323964457	10.332874721079964	10.797782838561321	14	-0.10305118678419509	0.02559561057260614	0.06208782260253186
Si	7.761969814376239	11.066603482684403	3.2807335639432447	14	-0.3686720774086932	-0.4248214180532789	-0.5488389402811537
Si	2.284248032278572	6.809997116491583	8.263616568121144	14	0.31802130260177597	-0.2618143691980188	0.36405591491689926
Si	4.201254079875553	3.542301992383104	9.336789005287566	14	-0.24861945669501884	0.0885882051372981	0.20968906548999677
H	1.3974453215748388	2.897432308391917	2.86867888357743	1	0.2630870663314921	0.02931188620234818	0.33003813464708404
H	9.726087498923027	7.292674828296301	8.787353148809276	1	0.26851698365711285	0.10453265766966442	-0.4965609129171147
H	9.600034439191694	3.5513755914844696	7.360921176494456	1	-0.23758118733455916	0.39653797397899004	-0.40152926073699347
H	3.287552645764834	9.691681121914423	9.65808548264682	1	0.11104603877719553	-0.2618303100510037	-0.08208330867732347
H	2.639017982944454	7.458665051269388	9.62360136366305	1	-0.14541683180746706	-0.12040151970561833	-0.5637906890494107
H	3.929368180731693	6.955685577950231	1.541812169455687	1	-0.11535906795174394	0.3587108440668434	-0.07228019831266287
H	4.998375869228578	2.1830501926070367	5.755815933258251	1	0.0013994526257565993	-0.34998142728387666	0.3544381812458213
H	7.3147535492430755	0.39053236984128964	7.667291194622087	1	-0.3074548310675634	-0.23892304720114443	-0.1026696347546851
