72
config_type=amorph dft_energy=-6957.733950886428 dft_virial="-10.830377956515974 8.572739072304365 5.995634852945263 8.572739072304365 5.295075043192691 -15.748131737723437 5.995634852945263 -15.748131737723437 4.785691339512634" pbc="T T T" Lattice="11.105996452100001 0.0 0.0 0.0 11.105996452100001 0.0 0.0 0.0 11.105996452100001" Properties=species:S:1:pos:R:3:Z:I:1:dft_force:R:3
Si	10.923069584537462	8.442911774843846	6.479404920101922	14	0.7951785978887972	-0.4117609743585227	-0.4375039092659734
Si	10.867506284287606	4.329084099039224	1.278066965711216	14	0.6700146197986685	0.8361242214437513	0.612046993471674
Si	10.139974668703438	6.331817333249965	7.061592360117456	14	-0.6989305557817139	-1.4942371947154542	0.3267712882273039
Si	4.947765843396359	3.8079130035315276	1.4095730697005322	14	0.3239692976494065	-0.23946375064997158	0.4119345239676328
Si	1.2031570196418016	2.628600558272385	0.5426256594538635	14	0.7299967071439991	0.17123535721133004	-1.5066911146651876
Si	3.704305162629886	7.9338795334582946	0.3677206531286763	14	0.8012744314923361	-2.852631839614609	-0.7073393557312582
Si	1.5356261294318672	0.08932219766530468	3.1606000003208785	14	0.07198992052201816	1.3416158686904005	0.746733060114971
Si	4.831452742553515	2.660208224175061	3.5809286480435074	14	0.11107869181476142	0.5097596820780949	0.7806384830822958
Si	9.733417456581416	2.5090778244548844	8.079112649062406	14	1.080659477337715	0.9419676286056272	1.158951176999416
Si	2.331803909086464	10.862486373891256	6.74852542612921	14	0.9814495219018213	-0.004112225849044837	1.2669347722297835
Si	3.9785455330215918	5.858279856525325	1.8005152508109041	14	-0.13875895458094362	1.0473952880372353	0.2823186770156677
Si	2.3992617315365194	8.639698925978607	6.668162435801814	14	-0.8172263402301309	-0.7890863638327063	-2.5648606195465034
Si	9.924984789383688	9.927106034706037	9.832827230824162	14	0.5798472417737355	0.25032744195919326	0.6878074399456892
Si	4.579890816916999	10.667698302117875	6.1518224487507815	14	0.6829138551898514	0.25268180310085286	-0.8754618757314849
Si	5.829082191852754	9.713482192949893	8.066429601114107	14	-0.0945158884528995	-0.7596744616334044	0.01953397266982503
Si	9.570259262703614	9.93209262711303	7.58332986144421	14	0.13753845088546932	0.9945691010189409	-0.9606299965719219
Si	0.6289459062781656	5.764978380331233	8.715064217902556	14	0.3151164678110727	-0.6226121794532264	-0.2013987934957113
Si	0.9846587560428314	2.2423895316506073	9.093523259000769	14	-0.4844759465808227	0.07358966225221429	1.3061317870565048
Si	6.70103618530003	6.367667489797344	10.7077576313206	14	-0.10024456821672142	-0.0322848552840354	-0.7476625146882045
Si	9.844055393237234	1.081760704222832	6.359460158419242	14	0.39067611095958443	-1.9719377645566227	0.4486051707067768
Si	10.728636904650548	8.086564772681767	4.158995763375312	14	0.20947386397470036	-0.5653261531466032	-0.9556232831819977
Si	10.508338359026691	4.318755522338772	5.476455698502127	14	0.8039635505466791	0.8336287066200156	0.06324893376511073
Si	8.598284665208725	8.77605835041749	3.4086080070927243	14	0.7121691770751564	1.0374507668799664	0.3291115082897027
Si	5.75993625794198	1.743474853032919	6.179509697905866	14	1.2400865191452008	0.8356213132431303	-1.0991457245895795
Si	5.597466635844209	10.3536873584312	2.4840893324376596	14	-0.22064943035925597	0.2435235259504854	1.1335540557575254
Si	2.611075295870971	5.648776339452911	3.762756021957289	14	-1.0445871268065694	2.623438112055437	-1.6980744244967942
Si	7.753140547196819	8.532270622297442	7.359077581083407	14	-0.586784341038027	-0.7298313850719135	-0.06289386412039828
Si	3.66921021384125	0.9002998281919702	2.6641286409226526	14	0.8019704297025003	-1.2188049661892713	0.2788908794028463
Si	2.3840354104006902	0.24237060297275917	9.031074240950609	14	-0.7086112815331355	0.3895355686395668	0.4645899895926694
Si	7.616525684839537	6.421153968710657	8.528294675567592	14	1.2410681671564334	0.31764617833556635	-0.6870173392808078
Si	7.369861503638396	7.8992621425171	5.1117791990009716	14	-1.418809192159334	-0.933525918507985	-0.13925594923932827
Si	4.422641013151715	4.063950645738241	8.675904474412452	14	-0.4077935017390023	1.3622047658730823	-0.11721412044023077
Si	5.675708380849254	2.161704467426101	8.541066571487507	14	0.07529867595851672	-0.5874075769676308	-0.2840796270494371
Si	7.773653322643848	2.375195037224819	9.561718751431949	14	0.3946826643799711	0.32355920635084295	0.6508174619257828
Si	0.8953476643739788	0.7480865938177135	5.408464788222371	14	-0.4546048449713423	1.8574873252250192	-0.8638790462642179
Si	8.740319253834633	3.360996600302571	1.7463402001175605	14	0.5888016302722152	0.010432259836500831	1.3698820863590444
Si	4.436079268858755	6.455049469882467	9.374293955306308	14	-0.648334545518116	1.0152631564092165	1.377202023205506
Si	8.007256852017319	7.727685603328606	1.379786787216	14	-1.3867493085908118	0.5337146703459145	1.037236593806798
Si	1.5095492497623362	8.15021323834875	0.7137357467913682	14	-0.6058102632965907	0.9210863967480446	1.5468502371027086
Si	3.6493415861884437	2.0799310155492883	0.6918069567966968	14	-1.5505217754998801	0.8131107719441698	0.48255121713815985
Si	5.200815972557457	8.93355248610472	4.4045826629206	14	0.04816194485701382	0.3562844919762197	0.5240352301471531
Si	8.966170797684537	0.9539995422371641	1.808700370196102	14	1.194213372244183	0.30308549468650375	-0.9761412178578432
Si	8.041130141196223	1.585480947505344	5.122318789634015	14	-1.6192541055812706	0.14250376947973928	0.5805753788004014
Si	7.0943439436547	5.3565331488123515	5.019821548377584	14	-0.07027576460507544	0.7787800881568927	-0.3700483900865684
Si	5.780493457374816	8.773737197159	0.6760786446212328	14	1.4443068436192428	0.5080118446814582	0.5020587074231873
Si	1.6706861522858554	3.1616106459980196	5.814899834383422	14	-1.5473207493762957	-0.2948841829362955	0.5734657583691279
Si	1.5585600121054535	9.002920539944537	3.198615826176417	14	-0.7666185028820602	-1.7642215081787755	-1.3522057372830263
Si	0.34427811581758355	6.2433136475231805	11.033296599324554	14	-0.2475259656023599	-0.7374503414671083	-0.013978842515113091
Si	3.507584647473839	4.111617582510654	4.916913385252426	14	1.5135012013266638	-2.050195525628098	0.825458248133649
Si	3.0472410945342943	7.902038641630124	4.492897546707699	14	0.663198362484424	-0.47962221395744714	0.43937053172840096
Si	0.418579453281423	0.6383438004759325	1.2356309532677419	14	-1.629491732745036	-0.17768574623851757	0.5716438731392709
Si	8.547696851369409	3.716988210578185	4.262237106394035	14	0.6768499032922822	-0.2932232488994797	-0.7724893647700865
Si	8.32589899622452	0.2835005502334663	10.767752224154844	14	-0.5049247185235564	0.38888944987261354	-0.665352177411112
Si	4.404138423062516	0.8423065359183942	10.103091654486015	14	0.8666897786002037	-0.7305394674770824	-1.4295672110398978
Si	9.217899313267836	6.785364016360824	10.824281746096032	14	-0.19742283622863427	-0.43055035492763294	-0.6296253834349943
Si	6.245112818948421	10.366814646237582	10.193161285712547	14	-0.4769927445465317	0.7711644741986141	0.8294658299961639
Si	7.032938889271039	4.204807998740225	0.48627272285626294	14	0.3276470066993464	-0.8436097374728305	-1.513434866809404
Si	0.25561894614046926	5.581163033052526	3.3614741581500116	14	-0.24176591835363215	0.19978053980721008	1.2362717701816972
Si	6.106187909329102	5.3753022828164	7.063291577574628	14	-1.2670592137272785	0.11230150950502382	0.7027417051977694
Si	4.524494106613924	7.811746890474551	7.567337226553186	14	0.9477009363590253	-0.29682408190034715	-1.0551402285931173
Si	1.1054453522565804	10.153668362328878	10.702382329037784	14	-1.2117447109801447	0.155016824851836	-0.4740249176754848
Si	7.7638911517624525	11.100610043820733	3.5347943387814844	14	-0.42297639287554073	-1.429621975583217	-1.4435424540075625
Si	2.1878035590885356	7.415162863166512	8.452629521739434	14	-0.24741797917891367	-0.22433048184611196	2.2475720819609695
Si	2.1236108995953975	4.001668217634864	8.097015515343191	14	-0.5452437637119905	-0.5754586221027747	-0.6707139604457488
H	7.165033611072316	6.563133027354304	1.8601322397657771	1	0.23942364140697722	-0.20865470981970116	0.5939983483452984
H	4.165503877296244	4.210771918835003	10.20735474917833	1	0.1465134082265102	-0.3914479567766928	0.1889225049296927
H	5.811745731391027	5.012424954740485	4.314324229754383	1	-0.12330429761206554	0.22796139677922514	-0.3727030563296213
H	6.453949976233709	3.3877176277663237	5.775295851035235	1	-0.7631801637374263	-0.5239984633410749	0.6615924501014595
H	9.35774602059268	8.327942499571707	10.454252156304966	1	0.2174165225297018	1.0899406533223854	-0.7539282983534054
H	5.143486818871717	6.280030071793823	2.67606758710866	1	0.18787837905918056	0.15146098619407117	-0.0567581783843969
H	1.4491437350593643	8.621485091797162	9.25303868604228	1	0.6812513784898436	-0.5802887005572048	-0.2811560231898968
H	6.323088020038615	10.787476473853772	7.1017183252988945	1	0.3559571902689649	0.5231541123539384	-0.5199721124097231
