72
config_type=amorph dft_energy=-6960.016106722168 dft_virial="2.8626106409279246 -5.972995577226149 9.670743944681378 -5.972995577226149 -7.508693113506025 -3.25250927831266 9.670743944681378 -3.25250927831266 -0.8653234274861215" pbc="T T T" Lattice="11.105996452100001 0.0 0.0 0.0 11.105996452100001 0.0 0.0 0.0 11.105996452100001" Properties=species:S:1:pos:R:3:Z:I:1:dft_force:R:3
Si	10.791818918466545	8.133143321801873	6.281107353449676	14	-1.4879171607279984	0.052621269924278645	1.7542674739318223
Si	10.893205560077766	4.783385989908827	1.9707812824180495	14	0.4683790275029716	-0.05895158833301523	-0.4509826717963177
Si	10.1466382665747	6.118515565390933	7.503388898981994	14	0.1820885069887391	0.2908164372092891	-1.6574093085322679
Si	2.954939158020891	4.212482242288626	11.009807416828362	14	1.2493558680453989	-0.8611608737197572	0.013868027875814709
Si	0.9425570340925655	3.012823611529236	0.6021227036470537	14	0.5348598406555085	0.21158808387945807	1.4388607283301051
Si	3.8610663025512784	7.768422398314908	0.448718906453132	14	-3.230797980528481	-1.6235915602563606	-0.49074018758283156
Si	1.5676336112068194	0.39283686410510044	3.467347622327881	14	-0.0529017775147068	-1.0732536655735605	-1.6330020628386346
Si	4.635143149266196	2.3331699466500724	4.685075709314837	14	-0.41671009498927575	0.6835401764458395	1.2698941144532738
Si	9.636273305614896	2.4766705268076565	8.230420744725818	14	-0.26877949351029995	-0.0030403320410751036	1.0761713558908643
Si	2.472050432283583	10.394746227314613	6.943813267742936	14	-0.897096698558403	0.9050344720132962	0.3183100377292286
Si	4.082886369689072	5.537438725020609	1.5603147595448856	14	-1.379373578758903	0.9334176749740069	-1.1840101978917073
Si	1.8961489862599374	8.187807036339109	6.309527598370601	14	0.6813727346609546	0.5812927171847228	1.1556398504575973
Si	9.955215311726304	9.58912835067573	9.988189015192589	14	-0.5102199099304013	-0.26949580345249324	-0.5143527046220074
Si	4.678289945482605	10.59453199749144	6.650026343595535	14	2.1394511897065063	0.9900758373614499	1.5721563412162662
Si	5.8130007089901135	9.535675189751773	8.681457472638503	14	0.6859176775353804	-0.11431545630229584	-1.3905715137597439
Si	9.57357995564279	9.705108271625011	7.670834007490306	14	0.9415397966803546	-0.4009978132673189	-0.4190608565834872
Si	0.49097278055479165	5.971938624216118	9.223285721547105	14	1.466950053952723	-1.15120572222247	-0.17709336357275543
Si	10.794528781600857	3.708003459448436	9.971196840620875	14	-0.874872578392107	1.6341027530261896	-1.5780125478039673
Si	7.400047601995204	6.240970282271786	10.320547065018133	14	1.2262614287282327	-0.14250505503239935	-0.3520054013918972
Si	10.057634811007569	0.6256707479244413	6.653302612548903	14	-0.031014215034818216	0.5530491252428961	0.1514967245580212
Si	10.585613882340404	8.464335241999947	4.068859496170069	14	-0.3837181857421997	-1.4348315491829011	-0.5042546884771258
Si	10.476108757322697	4.664918325754276	5.599710047127534	14	-1.2658124847575387	0.5988209705943003	0.7141365868661336
Si	8.336993886680169	8.775603004562953	3.6503633378620366	14	-0.08040283424007467	-1.9652947997409562	0.24711818829858442
Si	6.166726695989499	1.4795408473487621	6.275198963337159	14	-0.9185949956928212	-0.9686325618808829	0.7663259110966274
Si	5.643667581084944	10.603916564493463	3.0488403580233965	14	-1.1882599778753802	0.19771131424555488	-0.2213500565589963
Si	2.8956664549560336	5.667156763581137	3.5589498810648017	14	-1.157024904893561	0.8444309485120858	1.0362881130541954
Si	7.590426593177102	8.686810562928414	7.315308849065681	14	-1.2129261338747528	-0.9235137772807964	0.25819630979150643
Si	3.727150197331856	1.0921359261083838	3.0141785430963925	14	1.0752020491851688	-0.832595379391848	-0.6359811557864005
Si	2.7603954181694554	10.91184142212439	9.276861048432036	14	-0.37827181334253	-0.308281441427991	-0.8477201635481512
Si	7.962921714180536	6.417089174009189	8.03915327382775	14	-1.0118055339746816	0.026516323387751173	-0.5002386219670545
Si	6.742961321906707	7.82712869556071	5.180347621096238	14	0.24994280460329907	1.982047607785977	0.25962507301791277
Si	4.212471136292174	5.566347633785425	6.965669868760668	14	1.3434632078629267	-2.0028889875110973	-0.9490795630316888
Si	5.997671217995633	2.070046678706919	8.622018179626863	14	-1.7459525193264636	0.9439993160296082	0.20065034473701618
Si	7.885635084870373	1.9499131150845537	9.917588195746587	14	0.37834020474404595	1.257937703382989	-0.5378477221480524
Si	1.1597103615211863	0.7641436434881597	5.63084015518277	14	-1.1213911849300329	1.075397710300032	1.5104405575535595
Si	8.84449350055533	3.506718379750575	2.2164570299349537	14	0.40012723700591674	0.4839663535063694	-0.10612031520485583
Si	4.212504454281531	7.980546930550019	9.244409326799	14	-0.8938535063075681	-0.8068755844322787	-0.17110474506106652
Si	7.348115962585184	7.488162577846165	1.9154623140901395	14	-0.17998148617887777	0.3468660189674532	0.22390650657881958
Si	1.365382309817626	8.34811098912872	0.8316170143332481	14	1.7772405570778773	0.78303809567759	-0.508789089819739
Si	4.008898221325181	2.1836277044225456	0.9770478166742073	14	-0.35774076602955157	1.4670482701759526	-0.19912876460855253
Si	4.892269179125215	9.345196244601807	4.858862341797299	14	0.25166673072045836	-1.9220259254187162	-1.3188412748750609
Si	9.201906678376812	1.239862337915992	1.7984273234779093	14	-0.3420081725755655	-1.8055738805953776	-0.7124082898699301
Si	8.294213588346679	1.1903073817467218	5.1889103443608064	14	-0.14481570738361643	1.5020171023036906	1.2465662187730382
Si	6.264925916618967	5.23446714180732	2.1628928090464754	14	-0.0024379220645644084	0.471928181286904	-0.2964013921857148
Si	5.340862587818439	8.7314233506765	1.6218864038753278	14	2.7506211791534776	2.2413181253802414	0.48180456815318884
Si	1.0559481472688612	3.2155968947516778	5.4059770450171	14	2.165598045259752	-1.7553244553289353	-1.525659701275112
Si	1.3828409362403273	9.17143182411225	3.011812965852095	14	0.4075942410766908	0.29685030717461264	0.06598021894670403
Si	0.04775023174580396	6.522451762350262	0.31618327659270623	14	-1.1376860791175354	0.4124389748314458	0.6781251715310757
Si	3.225736669512445	4.122046113179176	5.358765454099224	14	0.258570919836652	0.5122402844909737	0.0680371032028225
Si	2.894122721449192	7.975515914157217	4.319421882125898	14	1.4094382845989906	-0.1611067449131387	-0.7718126498498233
Si	0.4036218972597347	0.7883969185402556	1.4553075630902799	14	0.2526206107942333	0.47216060920784536	-0.8801873101993852
Si	8.487979908446468	3.6611139424276695	4.617484614907357	14	-0.4528971168176999	-1.3250666921867353	-0.5929637355644708
Si	8.379285521169765	11.026444199513609	10.748672122250136	14	-0.8066102463632396	1.0916977466981748	1.776933567102652
Si	4.537965680310321	0.8919203538688607	10.312850609476827	14	1.293999512382322	-0.23316402839454473	-0.7758845093453419
Si	9.055307525209091	7.819509981994569	0.29598480084527196	14	0.4072044615101563	-1.211784820223139	-1.0944722264491464
Si	6.1314762632505335	10.301533599092137	10.936407886276434	14	-0.20064314564211974	-0.45550164650700997	-0.08356503667332482
Si	7.300848841685047	4.092670752563372	0.4162716272186766	14	0.6557524414772752	-0.48496754191803493	-0.5462295254917352
Si	0.22088827403546213	6.053123458280967	3.9846649370666993	14	0.8756343968984669	0.1569155861307653	-1.4224385644292554
Si	6.2258772330933825	3.5470553588646028	3.6817933078214797	14	1.4430014934482034	1.091913462434535	0.529938230851681
Si	6.480915335619408	5.7450320107032615	6.059365028287048	14	0.123624914445488	-0.8382132445163717	0.7772209698907548
Si	0.9341375781822283	10.380064100004937	10.50436241229684	14	-0.46295193839320303	-0.3645657651018846	2.765618693596434
Si	7.966442315055852	10.956887343734106	3.42175750689201	14	-0.3300458479630445	1.2551102588624223	-1.4869812783914644
Si	2.5587549465851276	6.653558050467302	7.878527247141028	14	-0.8127063370773107	1.5880455149842492	2.1197644933806643
Si	4.666750815168872	4.270277847825355	8.868215908977016	14	0.32192372625669674	-0.9941464113043084	0.8600959218961518
H	1.6683538930309143	3.111744721928091	3.776127641685617	1	-1.1235717393520506	0.02541383342647167	1.243871443286991
H	6.020582888676315	6.85223322099892	10.122327240341052	1	-0.053914021679249094	0.3882289329158675	0.4476739163598191
H	2.9647235408951915	2.6138962189698045	7.658250913510076	1	-0.434632498844432	-0.6526912834831068	0.3728462668959535
H	5.672276627945554	5.262565312831134	9.499236415392433	1	-0.32027281953062964	-0.52186290326216	0.00987021621351646
H	2.5925282817959636	1.9584314143633141	7.941054007166351	1	0.42427788638859965	0.7736216795530796	-0.2815691998148446
H	8.553383121552885	3.4508441116000603	7.837246258328572	1	0.23820596592735516	0.2990018081065126	-0.5900576152211074
H	9.798898411662995	4.8813519846128015	10.629871278202023	1	0.16885297102168081	-1.2707019557448642	-0.5633003792648584
H	3.715466689064247	9.642792525532277	8.986305969252195	1	-0.5784668153273479	-0.48409233766705656	0.5599304315217404
