72
config_type=amorph dft_energy=-6960.224207505762 dft_virial="-6.957804071007592 4.428493878166618 8.01430360456623 4.428493878166618 -3.9266565997262664 4.297689174011739 8.01430360456623 4.297689174011739 3.7732126198522735" pbc="T T T" Lattice="11.105996452100001 0.0 0.0 0.0 11.105996452100001 0.0 0.0 0.0 11.105996452100001" Properties=species:S:1:pos:R:3:Z:I:1:dft_force:R:3
Si	11.04220360847914	7.978347943252503	6.619862457231631	14	-0.9320398196329394	0.32990006629139207	1.297194367853138
Si	10.653826912549201	4.453304669355963	1.5988636732301247	14	0.8564061286512074	1.9754964314302397	-0.09261609873184208
Si	10.217661113885878	5.80625936914369	7.217353960358159	14	-0.7980320105730975	1.0081962163262577	0.10386545583908598
Si	5.005505918950827	4.091238079021051	0.43668555929728164	14	-2.188522020294193	0.5804555652924825	-0.3618617336366849
Si	0.9635229341948398	2.9663228043842933	0.3915674487106254	14	-0.6242959963273914	-0.648822798418412	1.7852320666339618
Si	3.776771789479839	7.966042499183576	0.2895633136966677	14	0.6763577937340058	-1.0513735592991003	0.830946015328973
Si	1.539935256055282	0.6600671295362401	3.3157951947425244	14	1.0028992251456885	-1.8151088246751463	0.5479123139237723
Si	4.671426439675207	2.603645384244516	4.741383111326985	14	-0.24956228101591715	-0.40815037115743885	1.1532402378623032
Si	9.863079965159683	2.2935326453125278	8.42034439005318	14	0.43227788059224037	-1.2779180199363918	-1.3446369174415744
Si	2.6502350393610756	10.676261025382443	7.1015184173627555	14	-0.4993675314845883	-0.3679429119398991	-0.2968760182278142
Si	3.6408899228883955	5.871140600416856	1.6689869348286839	14	1.1702208458386891	0.16255273454519	-2.0013396394451766
Si	2.2405348302431065	8.301121518139885	6.714363381042549	14	-0.6296773197624613	0.9052710137027496	0.3488048894893769
Si	9.436309839494836	9.718002333505899	9.941988069951853	14	1.7393771745807167	0.6488757631880071	-0.2335278397973457
Si	4.969544702438927	10.420334443140252	6.8398056109690195	14	-0.6337568925739403	-0.9228152079653122	-1.0061699282234489
Si	5.840388096240993	9.208214884361604	8.700715270486445	14	-0.875307352301744	-0.2599181790244096	-1.291657235435667
Si	9.408611484343297	9.535053253950457	7.615048587311408	14	1.203869929605595	-1.0616937189436426	0.02499808569620373
Si	0.473067693074716	5.41342916863646	8.964049552362185	14	1.1303005790854102	0.5303143835600187	1.0047347372337423
Si	0.7655296718453818	3.077138436983347	9.217244059477162	14	0.8877648717989255	-0.49401063355005975	-0.8022396244295199
Si	6.995789331138764	6.4669106740933096	9.930249031701983	14	0.10276193743567842	-1.3926610510534283	0.3227755334492618
Si	9.641437593965122	0.4414589165723942	6.644362285404964	14	1.654646141644705	1.8325728004517203	0.004480922351954073
Si	10.7064360177428	7.981357668291022	4.413711792004227	14	0.6507207883657453	0.29374389772680976	-2.0855412817957695
Si	10.340082512777377	4.337724564278958	5.491148931808255	14	1.9587654777804404	-0.15398144073941233	-0.15496463141383696
Si	8.67488272273886	8.825813214522897	3.7535158329091414	14	-0.46346333124138056	0.42329135327725886	-0.581158762597543
Si	5.768099165334274	1.4564292687319422	6.655335009899638	14	0.6859583009994387	1.0500090737056977	-0.7711189656344475
Si	5.127016626133253	10.378053914647108	2.6370744335653367	14	-0.6116924380480255	-0.2019996608090299	1.7993806021002048
Si	2.5273138706292326	5.871296084367187	3.625308209866099	14	-0.4550193071489501	-2.564023981875327	1.2022241650901684
Si	7.488440227757469	8.401275394144923	7.312254700041354	14	0.24885599838447248	-1.2747475899661171	0.8852601009960372
Si	3.930923020234987	1.3516886161921868	2.9423005340584014	14	-1.5864586287806537	-0.3492946850528651	-1.188972431159593
Si	2.699512345619043	11.031808395799972	9.44082998005084	14	-3.2364808946176047	0.7575679550446069	-0.7666015335869473
Si	7.925128008254039	5.965541570259707	7.851817325673728	14	0.14314217493073206	0.9955656614410301	-0.09713044545295808
Si	7.060315170525465	7.9595343852626455	5.16793111706279	14	-0.832107126491552	-0.3154422268551354	-1.3797247917456352
Si	4.365478449412755	5.825728180924221	6.598216870146488	14	0.3762563238820659	0.8027199069033235	1.249480823763958
Si	5.756804366942488	2.7201806050164015	8.980230989192897	14	0.8745128807578183	-1.245211503379852	-1.4042598213736803
Si	8.09129592717036	2.585020628194344	9.72017910881051	14	-2.0295413223702843	-0.6846292966594542	0.6208777118042546
Si	1.105051089382531	0.8224856640503314	5.63449402801551	14	-0.9555556631120778	-1.0287612022294619	0.7533068621975256
Si	8.625794218420577	3.350523645648241	1.9354531077039194	14	0.21080852474638923	0.4788837925095006	0.7826562865375478
Si	4.698536177014783	7.162301535945099	9.283768978225241	14	-0.5397889066647644	0.391763431399475	1.0179191082049297
Si	8.003736251142003	7.814556707576932	1.7184752550192417	14	-0.9239194977003158	0.480592034884207	1.4012076622481326
Si	1.5087829360071414	8.512179874715594	0.8972889925538058	14	-0.7591023906996713	-0.48459473164661343	-0.7596994013550098
Si	3.209233158784625	2.591295516189781	0.8578682581470768	14	2.101723304459718	-0.9227825549277462	0.35776801974594513
Si	4.938314640415622	8.923434923336858	4.681221928545959	14	0.6401252633414152	1.2533991882718638	0.24324070436526907
Si	8.95534245114374	1.099599155724195	1.4829170702702006	14	0.030067276945407676	0.14695975211008794	1.6638231878639096
Si	7.944130368183583	1.3851954074881727	5.325725114654226	14	-0.2887726655903034	0.33251230929666253	0.4718124815474974
Si	5.742377677551209	5.809979877955143	2.763582839151208	14	-0.4866968673563665	0.27472851700005857	0.4132696989603857
Si	5.937643307172032	8.878522273684565	1.1645858939636582	14	-1.0025364421850156	-0.129840818667478	-0.7979520491976408
Si	1.1811338286772872	2.9953983030958913	6.238038299208433	14	-0.22184190900674067	1.6711143283307854	0.06014355275943588
Si	1.4366161710613956	9.095166946475679	3.192240984212912	14	-0.34018885845102864	0.7756358834608835	0.5529470523616862
Si	10.81156538015838	6.503071798541347	11.091192158829351	14	0.9869971958511047	-0.6742332894079676	0.4087584375656539
Si	3.1435967197527135	4.271388447470565	5.586849303236002	14	-1.0896475473158886	-1.3131007680267661	-1.7998683407794367
Si	2.886592855854668	7.813279517984941	4.558844953640269	14	0.7382851793645604	1.9736951150429443	0.3031374310139707
Si	0.1399222281007175	0.8768328576886828	1.5001313647709555	14	0.6597777639664989	0.9006882755801178	-1.0828225482435556
Si	8.511824482829127	3.5650803911063607	4.405870958509043	14	-0.8246545206105708	-1.3136797809448635	-0.8998832625043794
Si	8.152034621766896	0.33015906252802885	10.677338307038298	14	-1.320913842873632	0.6449985363652238	-1.1119315742361442
Si	4.42478447046697	1.1405414116448618	10.222936462200625	14	0.28226134136702846	1.0701066326616993	0.9843319880762392
Si	8.786797848986671	7.669834467809617	10.757623555390529	14	0.9917077179081479	-0.3487128439189156	-0.3922172314884812
Si	5.998959513584077	10.494067153585743	10.589711995031228	14	0.564507513212668	0.530285330069901	0.4966146490183058
Si	7.279136618621191	4.149877740288138	0.17602004836897814	14	0.5858078352374348	0.9112714592989114	-0.12641507793891268
Si	0.19455928824646865	5.709448398070733	3.835200436814337	14	-0.6217068932700023	-0.38702025630486586	-1.3040311940099438
Si	6.276887074797878	4.141936952824887	4.310059527116777	14	0.317378783382271	0.7203954285469701	0.8934233603875074
Si	6.384892890294551	4.485989616914493	6.895835363069864	14	-0.8037028404672161	0.12082240964652659	-0.5602106820016365
Si	0.5656039661132585	10.438792609243642	10.885320302596774	14	0.7684907817761921	-0.7061018827406709	-0.48652383196832055
Si	8.155277572730908	0.044620561945602176	3.408441417145942	14	-0.000698569315484233	-0.4799564576490664	0.3349772279670885
Si	2.5285799542247718	6.69379507561326	8.310994748985802	14	0.6021747203739013	-0.635730215907154	-0.2554056320770177
Si	4.388234636143109	4.62168268156625	8.922979577482321	14	0.14024531056652123	-0.04591788413358857	0.40398672320199097
H	5.49450294273679	7.219752855591812	3.3899943570390043	1	0.17956573844860982	-0.24819702409091857	-0.07401929395121103
H	9.73646049960929	3.2606094983720397	7.321961340940488	1	-0.3091471325892849	0.7336394491615849	-0.5373913509537261
H	2.976129399251498	3.9714821192780567	8.816784039407342	1	0.4666990672867869	0.04172878223547131	0.1581515164581605
H	3.612258664034882	9.97513946936137	9.668836087212453	1	0.7973072159833478	-2.182697181191397	0.408883393284213
H	7.181748135732726	6.524550795679708	4.541130889299169	1	0.021853366779130613	0.39643075888713986	0.8451601139808798
H	6.513988993053761	10.954432918518194	3.1961947189498594	1	0.5507320451283786	0.3017323219565098	0.10654429047214825
H	7.1372353019527095	6.0499915672814755	2.05614197114889	1	0.23028876131502313	0.42269074307447224	-0.21708227883808254
H	1.9279010301164912	1.99130516386153	8.978809421647027	1	-0.5276998265599601	0.5204657646311915	0.022379672038164926
