223
config_type=interstitial dft_energy=-23317.06432387737 dft_virial="-69.24723017196236 -7.510995745699564 -10.252788560415611 -7.510995745699565 -49.97885213782978 -13.122292248597326 -10.252788560415611 -13.122292248597326 -50.413867300572214" pbc="T T T" Lattice="16.3199774331 0.0 0.0 0.0 16.3199774331 0.0 0.0 0.0 16.3199774331" Properties=species:S:1:pos:R:3:Z:I:1:dft_force:R:3
Si	-3.798948026899585	-1.3518163707385393	0.8468273090261259	14	-25.78486680700639	-5.192931863388847	-10.018261486292714
Si	-0.1456721185678506	-0.07051862248842511	0.223094091510477	14	0.7445890153884994	0.6834391320067577	-1.7532693708465408
Si	1.18762107778412	1.4353583352185781	1.5487168984688906	14	0.2124249786611663	-0.5799734830449548	-0.4079899341854616
Si	2.5866348232591845	2.7167050434009914	0.1650928917132396	14	0.8835341179946219	-0.39393678672659627	0.09750094172959142
Si	4.1540544158664074	4.018908682742906	1.388666879782479	14	-0.256383166319738	0.3434737026080498	-0.9274401122151944
Si	2.5589235015777807	-0.0672546270018051	2.719936398932745	14	0.7073139017885887	1.0116749218244179	0.2910830608309885
Si	3.9882924050784108	1.3171527386706348	4.131320687302099	14	0.06954222825723719	-0.6895928154800001	-0.3103843484693401
Si	0.0307141975290942	2.986408990460402	2.8074441179290277	14	-0.629097278402236	-1.1911900094982208	0.04658765706948715
Si	1.487206903523537	4.100312730179209	4.107656720024105	14	0.6033741410057504	1.1960997922175758	0.4900519026886278
Si	0.017299176079086	0.0802126890836865	5.331295988003077	14	1.144212058641135	-0.07633251740774825	1.076215321791839
Si	1.3101188283969687	1.3963862291083353	6.930898576108373	14	0.46952754024948173	-0.20710484753271594	-0.7354371660014324
Si	2.7686352115931157	2.7181248814376713	5.490024088517407	14	-0.6532235022843774	-0.32838362837356877	0.5250346187850946
Si	4.186824930552072	4.108994958173619	6.719424308530263	14	-0.7060301489022388	0.2416227077872999	-0.30564117337473096
Si	2.698997867886078	-0.0500207308324515	8.257990181035765	14	-0.10529807572347248	0.06416990369078777	-1.068659871698052
Si	4.088562346427377	1.376084177181559	9.476912975536573	14	0.48425251752850185	-0.00569371273146792	0.4382726697566977
Si	0.0274338820650411	2.8800680175063222	8.21769615675344	14	-1.04383430716883	-0.953700353513059	-1.0213713313182924
Si	1.4229551523694222	4.062760462105646	9.463514274063996	14	1.9408443594779436	0.6319959425401709	0.5075919831826781
Si	0.0271890824035446	0.07128566142778081	10.823245833857587	14	0.72351932151095	-1.2638206494660198	0.48890621815796986
Si	1.4201970761832283	1.338091269717302	12.299453072591216	14	-0.5251132946078911	-0.24648698194248803	-0.2203218715414691
Si	2.758223065990798	2.6243339711296456	10.932573362681925	14	-0.3915263754889574	0.6213117143822955	-0.9509513277047565
Si	4.030104187262014	4.077089402291908	12.19213290099115	14	1.236964168844413	-0.7179690764563463	-0.3271543829200059
Si	2.738116853793219	-0.0023011168180671004	13.6389152204129	14	-0.34615510834643226	-0.45348924237293003	0.9877317606410709
Si	4.0318993847796545	1.4015107020223285	15.152560487378059	14	-0.19217341049648795	-0.33376546602970275	-0.9663946718102261
Si	0.053137846522173605	2.5817714699841208	13.729458455211738	14	-0.8756495664198558	0.09683888210965329	-0.3936827615209656
Si	1.3730649813564355	3.999030950229391	15.039397763856943	14	0.28383537204402304	-0.06879917881971438	-0.9271251518134763
Si	0.0795272500314963	5.383617835653594	-0.0439496992273383	14	-0.5319367510170322	0.9379826724699297	-0.5702367071975539
Si	1.3684953876751673	6.728628775802531	1.3126484248990993	14	-0.3343941012804789	-0.863950265881586	1.3186407286600892
Si	2.6455173018378093	7.98373296027252	0.0595515976533819	14	0.5988577374003783	2.3914053700017575	-1.2997616165153059
Si	4.098386972842103	9.522772112123583	1.2226600693329859	14	0.07851461449295793	0.0053301584391989825	0.0019288432111750887
Si	2.8701128312721313	5.43344272675685	2.6284139654879204	14	-1.078348824986498	0.18138736656793472	0.7161867862484197
Si	4.066122377456865	6.907789488063103	3.9823356133153296	14	0.46002859164419463	-0.10895290193606298	0.20008007357700733
Si	0.1449050796284949	8.132195794981431	2.705264739220388	14	-1.233834876559261	-0.1599386917661954	0.035080160988100385
Si	1.4299074627559227	9.630075963746215	3.9893695235889957	14	-0.19683816687883263	-0.966465634317062	0.41879988939349216
Si	0.1287809419245921	5.535214106029661	5.471647793927736	14	-0.17067819868845394	-1.1759700944450724	-0.2272288888735149
Si	1.4300869825076867	6.879050007803414	6.798053959802939	14	0.9551820815090604	0.396937780856273	-0.08792177463831573
Si	2.8139721089022673	8.321687052957156	5.379358321543556	14	-0.5260903146295474	-0.5524598279035181	0.18234458907862586
Si	4.275018088600545	9.61915789884347	6.664964543836009	14	-1.4144984769795739	0.6520791033063795	0.10983196284502161
Si	2.91474796955166	5.498494156805186	8.048278471020431	14	-1.2490725322391185	-0.04856483706068102	0.7933826808226737
Si	4.089182505569835	6.965399008401946	9.458389801150004	14	0.8781260550642223	-0.8840187713474699	0.3925393909850957
Si	0.1217307116734929	8.130384277486357	8.263277853724091	14	-0.6628610334664204	0.07125998372162812	-1.0310991082970726
Si	1.306724273090884	9.50839421200502	9.589716659554158	14	1.4170258735092796	1.0213736453130806	0.16441190080218906
Si	0.15437066653969292	5.351157400539159	10.867358732859257	14	-0.12907668616633	0.8239646930531751	0.4757185047498663
Si	1.4621394181862952	6.763700407306263	12.351138441121844	14	-0.8115441974726036	0.2398774414959834	-0.8899559677527557
Si	2.767884492631193	8.185121481796974	10.933585201282778	14	-0.6318141653940365	-0.19040808958367428	-0.04079187145680935
Si	4.093621539431638	9.516456280856973	12.283149415135549	14	0.21971277669112602	0.5906931924562481	-0.0965005246495218
Si	2.714501846447523	5.257513370028031	13.543410712474397	14	-0.07630654924401477	1.243335624938272	1.5885219408000726
Si	3.983657531487411	6.876210331730055	14.919853929159485	14	0.8420619320701013	-1.224146437491879	-0.6620614197118545
Si	-0.0823016461951233	8.11476605908288	13.603353989586173	14	0.7799262869086148	0.3134064256626422	-1.0000558397721366
Si	1.2630683334573414	9.452938928687347	14.962318510440412	14	0.5201379487028726	-0.09669824264864119	0.7615487974117923
Si	0.0144105400734273	10.818480400447124	0.1432078019754525	14	0.42303090030832785	0.20556912632499144	-0.8044065519933405
Si	1.3657209915115402	12.23340612391946	1.4177817195231295	14	0.7325086770417838	-0.6068371627614578	-0.7598639520954993
Si	2.662783837962029	13.574745069145951	-0.007670389393557	14	0.05623418712015073	0.06694798298920777	0.10263723882765124
Si	3.946937582262936	15.055848301109508	1.3156676207242226	14	0.7300869529407362	-0.8673916903526041	0.2469672644162917
Si	2.807019798515767	10.868843850805671	2.6659499135840505	14	-0.05544434356580123	0.11964150097298257	-0.6489181864257895
Si	4.025322433874115	12.294654999225884	3.9730495461558957	14	0.650507900845237	0.16824439039240177	0.6537963445497065
Si	0.038629386584147704	13.49551157870825	2.7006951455391204	14	-0.6413650503267905	0.22454336936662023	1.590752374665301
Si	1.3982956664680082	14.896026762107159	4.148734103223217	14	-1.3559546659503343	0.2095947059247473	-0.6777258788748566
Si	-0.0266178831933861	10.730026122759721	5.411737156770826	14	1.0534594970453364	0.7141232171184689	0.9754056246257491
Si	1.330730959894974	12.200717209120961	6.844647495374439	14	-0.008060158068132213	-0.5869324367044675	-1.3455895119626893
Si	2.6556520078237646	13.543932951752257	5.431011050119317	14	0.3757421028180363	-0.3574499740178428	0.6467124351716345
Si	3.9865624874705023	14.931751192708214	6.7615788102399605	14	0.13165447636031044	0.4084355067374432	0.027603900938173803
Si	2.7767136004225	10.915665866061234	8.106279670817669	14	-0.22694555306723457	-1.1393392998383904	0.4443440778596954
Si	4.064196620119759	12.246396825956207	9.498259506019066	14	0.6986919572080041	0.2460941170495694	0.20910799568764324
Si	-0.043313220107447405	13.637168982827557	7.941398938811059	14	-0.07991432422924655	0.43662613390967486	1.0926449418981172
Si	1.3546723667893317	14.811293439274504	9.436472071457349	14	-0.6622740501218307	0.6713860473764355	0.7782540400083904
Si	-0.0968264261105823	10.90933371481719	10.89084318038549	14	1.3958985868725589	-0.2006194914731744	-0.21058663835726044
Si	1.2754062363967649	12.129333627828581	12.332598946757843	14	0.3461635929939888	0.6096152420598779	-0.42602006735353193
Si	2.623289492573927	13.483630635136953	10.88932542248421	14	-0.21342179619378773	-0.23765986315735566	-0.1606465170608322
Si	3.9269782498622545	14.900302596194631	12.17901163913494	14	0.8448135289837237	0.8485382892610224	0.005933853968369752
Si	2.6840650885347914	10.839875890861919	13.651530562968686	14	-0.021236815723359104	-0.5125868694881296	0.10906294524376532
Si	4.027411390985551	12.277551662875997	14.910633141909782	14	-0.325019079951623	0.26558515226054796	-0.02048579585934385
Si	0.0335538736024536	13.677381407222716	13.591244566330815	14	-1.195566287863645	-0.97236606391627	-0.5096131290748465
Si	1.2083148091692908	14.88540245679821	15.040964481690521	14	1.2468541825688948	1.511974221877028	0.5831158879672398
Si	5.445111510621516	-0.024904285562910602	0.0234028476390654	14	-0.18158816989343832	0.3568136254511062	0.4390797397166922
Si	6.734079648265187	1.3173975383321312	1.4524779915458998	14	0.06626998251628471	0.18963392977177768	0.247979508580834
Si	8.008049726647839	2.6136933458432643	-0.0591762381724206	14	0.8356192563588742	0.6564001029074205	0.49578803865787824
Si	9.585440825466685	4.056477270793903	1.2352590919113389	14	-0.7768437887402891	-0.4283230063887886	-0.2083361498705348
Si	8.128066840690856	-0.0356101907590242	2.869362112310209	14	-0.03630503556261894	0.4951282930327282	-1.008813281603093
Si	9.510989088416885	1.2151691996911929	4.205266505051476	14	-1.1939508623909958	1.0677214182561978	-0.28794348412455567
Si	5.318778565311888	2.720507598142904	2.83988823306603	14	0.7625880381821962	-0.8444970259188136	-0.4829926759216292
Si	6.774814311938204	4.078868279832116	3.990870961512841	14	-0.21145284373961828	0.11884600098692875	0.9510539148070306
Si	5.426588336234947	-0.0178050953795121	5.476331627451036	14	-0.44390467596048205	-0.1825016836136869	-0.371291262398328
Si	6.686311074318503	1.3933833532606448	6.805544829444732	14	0.27951025867446994	-0.41307146674020223	0.6837875167776377
Si	8.024157544374308	2.6229141330929657	5.399333973921671	14	0.560098067588614	0.6696875752019456	0.05507256173650782
Si	9.390319175276543	4.03361298241013	6.788621012846607	14	0.6842233191294027	-0.8802387323057881	-0.8859735827223784
Si	8.123040287641462	0.013643501134071602	8.220356313075037	14	-0.022899035312834836	1.1481751603816115	-0.5777767306594201
Si	9.404860275169435	1.5193409390893107	9.507170213697538	14	-0.35955468083291603	-1.435316459646281	0.7604910446830834
Si	5.408554761171372	2.866620356101448	8.147193854242449	14	0.277045854225108	-1.4269277143182337	0.358200222550262
Si	6.814781936671867	4.076012283781323	9.50122974191189	14	0.6011719892990436	0.10099044587009638	0.5151093809177271
Si	5.466751800697807	-0.010771185105846	10.876530560176661	14	-0.634968397400794	-0.14674172237893937	-0.21422398105367388
Si	6.747543629647494	1.37835265404476	12.293039321460007	14	0.23143444584568112	-0.5526814571821148	0.27685687798407715
Si	8.15024569002244	2.752396834047181	11.001639507178805	14	-0.206915871291685	0.4871789496038943	-0.28619564672791903
Si	9.691145319300876	4.107705679956403	12.212190153256431	14	-0.9332942619186397	-0.640280815213284	0.8111137944420108
Si	8.166908386981634	-0.13240397691474032	13.577747944993641	14	-0.7318538165167421	0.6815293149749517	-0.5454545943482427
Si	9.414897061290791	1.3564349243521063	14.819029108577793	14	-1.3454380738593326	0.18464572834015838	0.4768338502377465
Si	5.330333109334524	2.6886183622386266	13.64222817583182	14	0.17496577392033288	0.4420411388244387	0.05030213292550507
Si	6.786515735757737	4.088823466066307	14.910127222609358	14	-0.18023911093195663	0.38913216221483554	-0.22087517340636498
Si	5.405976204736942	5.503455429944848	-0.014443180028293501	14	-0.31255538980167313	-0.7112523209179915	-0.968317087258101
Si	6.793386446257073	6.761464570397929	1.2726318402331378	14	0.7516397575079415	0.6158113487709028	-0.03572859374984174
Si	8.215346080003075	8.271960081718499	-0.0092534272045677	14	-1.3195349590904366	-1.386912059557577	-0.45353989314773696
Si	9.495664629607203	9.63515147672791	1.1757890941451226	14	0.7466055332910917	0.7959355312950487	1.2662174338454617
Si	8.082534103652508	5.339064297261232	2.5762389976342996	14	0.856416927293552	0.3716949259335912	0.01771465854528825
Si	9.424052568630762	6.791020049529273	3.9480636607058193	14	0.29668704198678325	-0.5796017012156613	-0.050213686902491984
Si	5.504091909064739	8.166108708087412	2.5739378808162328	14	-0.11760827088580948	0.6259687574486797	0.5150088506997091
Si	6.890196552390222	9.6195658982793	3.8974390907083434	14	-0.07751599718661242	-0.2776747465864163	0.9207385261982286
Si	5.400900691755248	5.5097059813017255	5.3832751161275	14	1.1063011106955516	0.539853184297768	-0.31563891641212677
Si	6.804875710369974	6.864688427662286	6.873403295611562	14	0.38086837260534756	-0.2952189408489787	-0.8353976270802776
Si	8.26637864943638	8.179474769605122	5.405062286000689	14	-1.7810607053625536	0.08442944228195859	-0.18070576654756348
Si	9.539483769015078	9.574832840135173	6.673320372281756	14	0.3429815930497735	0.7866361004626052	1.1930165227176541
Si	8.240495165227482	5.384107434976588	8.14172666180236	14	-1.4161344712947843	1.0971132658340026	0.5994717173508297
Si	9.503188139203862	6.823023525275582	9.472914581065462	14	1.1450767213603008	0.09480436646982011	0.37859962927084884
Si	5.465380922593426	8.360593879157665	8.088376655573557	14	1.0657655784391613	-0.48016703117478654	1.2473388359217428
Si	6.816071214889082	9.709684813664875	9.614408785410438	14	-0.0386987346156768	-1.5663551562824158	0.10957125276555858
Si	5.51009766076012	5.388693348635289	10.896587812441942	14	-0.6917350604327475	1.2438413613547452	-0.4583923402184525
Si	6.908491247092726	6.73714780402261	12.268037116032499	14	-1.032808379113907	1.20499478818316	-0.5814341279773309
Si	8.282878146621243	8.211429285419133	10.96669843549454	14	-1.8172947784183364	-0.8514066143561795	-1.6125856868229345
Si	9.536170813596158	9.525840267881005	12.208191758785322	14	1.3392825906123658	0.7582050749429396	0.00017174983538589169
Si	8.252800428212039	5.462786046181564	13.516629629506681	14	0.33722334557476985	-0.8185926255972575	1.2089154666858537
Si	9.526754186617259	6.920029471137928	14.884537497994256	14	0.02486824487753625	-0.3293315949051073	-0.3796900350371237
Si	5.513263736382141	8.241784443444697	13.614533174127848	14	-0.3546508116557976	-1.1275626090299842	-0.01362634397572079
Si	6.710742080535854	9.568288529184498	15.073881876173083	14	1.1613402480628976	0.4353554936604576	-0.89451093793793
Si	5.449093585115192	11.101191369520715	-0.060237036705572095	14	-0.1774538325386402	-0.9878351190749408	0.7763257110182793
Si	6.82991055575235	12.379143522397042	1.344602940713109	14	0.18956708103345385	0.009924980756835615	0.32793754160052313
Si	8.29812100554376	13.626169318037647	-0.0523218476505186	14	-0.6398586397197157	0.30032772712011296	1.0201390005383455
Si	9.533918656710389	14.998826299958255	1.5393492314222914	14	-0.3144505515331543	-0.6618194787012285	-1.1434250433026378
Si	8.312678425414084	11.054320394332851	2.6944609141596763	14	-0.23438324653735898	0.14354583846599533	-0.3096963206856685
Si	9.677403898302206	12.494901122330022	4.081707955905476	14	-0.11574010576018987	-1.2818016745224756	0.17236381533634304
Si	5.426735216031846	13.71388919674056	2.7584841856297277	14	-0.47351018239039117	-0.17450965983653863	-1.1086459587475268
Si	6.824655523018892	14.935243667878899	4.113450312012855	14	-0.9674614234075555	0.38952888376573436	0.5875235338175696
Si	5.509510141572528	11.049228561373726	5.3582729106999905	14	0.19848136028893926	-0.9034519566887451	-1.107742729448559
Si	6.83381103035886	12.25488321422142	6.744002194544511	14	0.34737226960499035	1.1125949194087423	0.07920315649769358
Si	8.21705967763355	13.750037946754878	5.454462857690682	14	0.5787843468343863	-0.7270399360258287	0.9133741092297284
Si	9.571275085054756	15.03344097209386	6.985390980757494	14	-0.37948306105885177	0.3372696254705325	-1.6144474241852536
Si	8.074896354213816	11.010615494767011	8.230442059128693	14	0.838130969146127	-1.096701631872247	-1.4416622046869385
Si	9.570899725573794	12.179305398728735	9.499891503762376	14	0.40241372096712447	0.9627794406195659	0.5405417263025037
Si	5.425364337927465	13.638947860367766	8.038829204086666	14	-0.36663113400555963	-0.5737259542275269	0.39284560962872533
Si	6.735483166324434	14.979715606384095	9.382110226627693	14	0.18145678641157872	-0.6890066034670064	1.5845819790074775
Si	5.462100607129373	10.971659708634201	10.988436645435428	14	-0.7797280546884313	-0.07360148933668698	-0.4163023176855003
Si	6.814684016807268	12.308657539863484	12.283900134097472	14	-0.14269943059460258	-0.576489635336154	1.1074221126151362
Si	8.113297261113901	13.52552401720772	10.897289571471562	14	0.16374495608214265	0.5629036577139596	-1.7108502468326099
Si	9.455599085008943	14.96688810412168	12.074318983901602	14	0.7136784158980832	0.23986689996417077	0.34348424413986245
Si	8.277851593571848	10.809096413423092	13.581730019487317	14	-1.7744398520526403	0.6328058407160174	0.7176047508324813
Si	9.56672181135092	12.237029158909609	14.920115048798415	14	-0.3453187277857881	-1.4986304423759915	1.1839757450804174
Si	5.328619511704048	13.665679983403182	13.574761389123383	14	0.9364394950567769	-0.039312714566128164	0.20115428137976518
Si	6.804239231250084	14.96414634791292	15.030340176381571	14	-0.16862825641669993	-0.5157400730527593	-0.754354330504954
Si	10.714342624446513	0.0110812646770749	-0.13597805197258922	14	-0.2222370878944474	-0.6829321100376244	1.9808507582594481
Si	12.260709446165038	1.2617953752175595	1.5109361507112642	14	-0.6896601784393879	0.04862911469368472	0.15575473207871846
Si	13.561134207966745	2.517307559123376	0.0302898781158336	14	1.254085159171279	0.1702832769112792	0.594492771898363
Si	15.094200248077293	4.058060308604913	1.2381314079395647	14	-1.6790852690443085	-0.4521628091382656	0.11710741956944462
Si	13.650567684300132	-0.0448309780087257	2.9756704453094223	14	0.7944386337776586	2.0375888820223476	0.5004275982080854
Si	15.046594873904938	1.5276804475576247	4.13437252308209	14	-1.1799324248539524	0.2681572860228241	-0.23173603649973448
Si	10.668744607498432	2.5861452239361915	2.8010630067526856	14	1.4421885099459728	0.876540454413287	-1.0026359439609052
Si	12.230452208004069	4.033417142680933	3.9744857041700086	14	-0.6241005923230601	0.375094184277359	-0.22679154385855774
Si	10.903181083324913	0.1573898623648164	5.563871986402185	14	0.03797419713645907	-2.287461238339875	0.3982896680336069
Si	12.101442786395415	1.50096464449964	6.884680400017833	14	1.8542842422171786	-0.34119596040493066	0.13214478614486266
Si	13.441166053856024	2.74270276745192	5.44276143387115	14	1.2860010608418735	0.41544433984016693	0.2861192848999106
Si	14.972371616539201	4.149240022523643	6.738828761698219	14	-0.3258750009127003	0.030971791797035776	0.2468255965131515
Si	13.736035406117278	0.1775450344946949	8.096781443951603	14	-1.3670854951023192	0.010874747062098315	0.15127638083208453
Si	15.046562233950073	1.4118086077826149	9.533265857613065	14	-0.32599250042583106	1.0652469864960874	-0.07853106956700688
Si	10.771119825936267	2.717945361685907	8.216619038242857	14	0.40961127320034696	1.7783240208597881	-0.18331492422644977
Si	12.265915518966196	4.135204841931178	9.48158048908244	14	0.668357799530365	-0.4881924793210967	-0.5256701960202351
Si	10.864714896515096	0.0952107483447054	10.721621334381675	14	-0.6037880889622943	0.15362919931055205	0.7516664970032712
Si	12.184723631236523	1.4375288922171803	12.130965625571891	14	-0.12232162115870494	0.5286521639705429	-0.44645778354338905
Si	13.708324084435874	2.850316698645781	10.889831341784637	14	-0.9626331447268495	-1.0378683143839587	-0.6451101223361182
Si	15.089320574824795	4.035310260063173	12.232541165115506	14	0.5502494486597869	0.10669187191752477	0.949689429213628
Si	13.487221030172234	0.1000904215972023	13.408509779012393	14	0.48823438833781513	-1.3872776707341021	0.05059858136891815
Si	14.834206687590576	1.1028714349740318	14.9142398569225	14	0.9463027692859289	1.2235273153307873	0.9978189781436081
Si	10.899231648786104	2.633130438966086	13.665076144238158	14	0.40747185646345174	1.0922001406777317	-0.6307186174171213
Si	12.34790708559009	3.922000656745159	15.056925419620091	14	-0.716833676346969	0.9220027386841453	-1.0799542231483985
Si	10.91527418660284	5.487184412444048	-0.2089609910534124	14	0.06750565573314789	-0.42734675769872843	1.100853966964286
Si	12.171227009899349	6.858666355989473	1.28064494915279	14	0.33704336820235953	-0.45137939334721655	0.22891399130033996
Si	13.593121363735621	8.124509085610441	-0.09302387136867	14	0.325226825261491	-0.29179911366264977	0.16972457572521102
Si	14.926153440448662	9.490654396535243	1.353562608323881	14	0.5529578510040308	-1.2731753590628467	-0.056821941796336574
Si	13.676255328779831	5.416143550677763	2.5759941979728036	14	-0.97847603859907	-0.16102061288491376	-0.1080000503044161
Si	15.028512338909064	6.613360775192546	4.039684014015243	14	-0.023376746681318353	1.7683902983448638	-0.11213284499602214
Si	10.734367236756926	8.236154051230278	2.6021224818431965	14	0.6467018936398219	-0.4672539118148748	0.16051153403152443
Si	12.257380170768684	9.402053239050943	4.029826747645651	14	-0.4310710037549629	-0.4274526872379185	0.5041675280067728
Si	10.72437941056787	5.340745254936841	5.369321535422199	14	0.8982220713570318	0.5439019038454053	-0.33236395651969003
Si	12.16270798167927	6.7775723881243986	6.718396149951978	14	0.41555644003212533	-0.4275293061764589	-0.12597387626597525
Si	13.65507199807167	8.082403543833044	5.430717290525521	14	0.1410158708309696	-0.2320481686856005	-0.1066872439279485
Si	15.026292821978164	9.506158375096685	6.884402960401471	14	0.058446880358670156	-1.5453623384539388	-0.6527128807677961
Si	13.670575976633113	5.586311955372698	8.17588437456984	14	-0.9011027377577258	-1.1727114755623167	-1.0671115520742587
Si	15.110748705194455	6.7229167837009465	9.49223743434625	14	0.40462718553724	-0.2143625636304299	0.5766734693665446
Si	10.954164692825918	8.207039211489628	8.073868195635532	14	-1.0561702133843687	-0.21962793021556115	0.22606006439497559
Si	12.327719273505346	9.35813617977847	9.546387119469278	14	0.11268177598187375	0.3696822646889793	0.260063189364466
Si	10.997690072639996	5.385592552923001	10.877885118303608	14	-0.8971771741549236	0.9220618741065087	-1.0030714892021382
Si	12.366838259412487	6.626416757139026	12.192214500878316	14	-0.3628575227271782	0.6468114227264602	0.7917775397713053
Si	13.740164360407851	7.919774968712201	10.878880636927027	14	-0.8684461006443968	0.721782025646126	-0.6982083322972843
Si	14.976125211348814	9.426484245268293	12.022911054987336	14	-0.04097519126613591	-0.3530274157566561	1.6253334841107607
Si	13.682359000339812	5.3414959738987635	13.61244421701641	14	-0.5723334435861347	-1.1900414967517106	-0.29833717738125426
Si	14.978573207963779	6.685397155582249	14.84918842687416	14	0.06425912104539691	0.5941351311483303	1.6128919054665642
Si	10.95207573571448	8.160592555715024	13.405784342781065	14	0.11222334790329135	-0.8015294851400949	-0.2937729512169274
Si	12.257592330475315	9.376643034187605	14.771244214653676	14	0.9145025673547414	0.7000528432539586	0.6507074186180806
Si	11.04798824308881	10.779948933727576	-0.150470191933182	14	-0.6871392096729828	0.5376440906066968	0.2694592937569471
Si	12.278237101928188	11.969561048758534	1.4824577900905047	14	0.5594164675682427	-0.24453474167289957	-1.1382193263609341
Si	13.643272654387538	13.221825557155164	-0.1436321213887131	14	-0.5109547318308997	-1.1126710241262185	-0.030216401053976272
Si	14.933236310654626	14.96388522827399	1.568708870824438	14	2.620744879232582	-0.6672334551738642	0.9839429798413007
Si	13.697454979465428	10.68052763120513	2.838843754510312	14	-0.3263475700705435	0.9095107663756739	-0.17805547118355483
Si	14.956296438767597	12.098178790908795	4.21708216871304	14	0.3176767744888761	0.9402483304780442	-1.4756607016668524
Si	11.147686985227617	13.64872352685019	2.6248235704526386	14	-0.4382834683990423	0.6492462594646403	0.49396229677004105
Si	12.290575004867609	15.015668516669214	4.2478942861067335	14	-1.00942160512184	-0.15105166622710361	-0.18214661396897447
Si	11.063329021875923	10.894335655556173	5.39280598294843	14	-0.41918349830725826	1.028206357701374	0.417026598054186
Si	12.419421226701933	12.346503567530842	6.904737652283114	14	-0.6376060943487339	-0.7260971117049305	-0.7203877152310098
Si	13.696018821451316	13.647630088362174	5.371998011721227	14	-0.013509101573122035	-0.26621070218494003	1.478553452262551
Si	14.972600096223264	15.161128475530436	6.710024001528797	14	-0.010099815918605683	-1.0361379605034988	-0.42231793280305074
Si	13.659527351910905	10.753885929766913	8.171331100866004	14	-0.30773919531597177	1.2360162023128745	0.8470676170178977
Si	15.047786232257556	12.233993643107052	9.504656937172841	14	-1.2266146985992212	0.6607092754239886	-0.8799875353160096
Si	10.915665866061234	13.668274859815046	8.188108037667233	14	0.8045140241957228	-0.45308069373755844	0.7889701498722356
Si	12.320310003750718	15.179341570345775	9.48006273118116	14	0.44091319492048975	-1.430754033255678	-0.3495042301364572
Si	10.99945263020277	10.860128982856395	10.890076141446134	14	0.0008921735460913835	-0.6449070050158264	-0.1278842075188453
Si	12.234597482272076	12.340334616061131	12.210574475490555	14	0.5251019817444824	-0.8068290474259842	0.8661472753776526
Si	13.633333788130779	13.627425956299996	10.863556178117346	14	-0.2296128177263562	0.3219679492682033	-0.7655813189959125
Si	14.943746376121544	15.000915257069693	12.188085546587743	14	0.3465258617335977	0.17463692954988597	0.058278215849668455
Si	13.741420998670199	10.70391415886676	13.548094545997696	14	-1.4099388788048233	0.7527545887747578	-0.951963057648235
Si	15.102050157222612	12.060642842812664	14.886642775083127	14	0.6463429673371291	0.3176016982135278	-0.45451948427471334
Si	10.671747483346122	13.540799516085102	13.572443952327882	14	1.84645676918052	1.3702960343155883	-1.5015818141729895
Si	12.213332551676748	14.986961676364393	14.75546279647587	14	-0.16771140025953507	-0.7790868210215863	-0.05864151303140537
H	11.424072331048139	0.8120869730642859	-1.1432699071119277	1	1.411393353084431	0.8087941432221734	-1.0197024268549844
H	13.415424553450798	15.241776908011586	1.2094017196663354	1	21.612771742139778	10.74067883206345	7.322256497681418
H	-2.7022749193546445	-2.179107034779501	1.443397556102123	1	0.9323635217927462	-4.358779422615117	1.5805872526715636
H	6.99001443036429	9.61915789884347	6.664964543836009	1	0.11779159069513602	-0.013566180111229325	-0.0032758452884006674
H	17.68759643798701	15.161128475530436	6.710024001528797	1	-0.01552793347050231	0.009694352609618331	-0.011965409938905129
H	12.251167155359903	9.525840267881005	12.208191758785322	1	-0.08861982973273592	0.024570253770931087	0.029831763698082114
