227
config_type=divacancy dft_energy=-23082.347914805396 dft_virial="-26.47853138132133 13.190666367232113 -24.089064646084314 13.190666367232115 -27.223721007225752 20.577763528371623 -24.089064646084314 20.577763528371623 -24.194363180179504" pbc="T T T" Lattice="16.3999889955 0.0 0.0 0.0 16.3999889955 0.0 0.0 0.0 16.3999889955" Properties=species:S:1:pos:R:3:Z:I:1:dft_force:R:3
Si	1.2322951731218699	1.2471699631407884	1.1741572121328225	14	0.7959453014952653	-0.21915304706292982	0.5409358767480824
Si	2.576700671016978	2.6235390395881257	-0.157997493982647	14	0.17546302568924954	1.0353301192119084	0.654639152873651
Si	3.901376982150499	4.048288083572189	1.2976163292909464	14	0.7066382153104538	-2.0045578919744056	0.32411096555254665
Si	2.7060473842244868	0.0674203547605005	2.687269396824639	14	-2.6196678432139717	0.2720142011135782	1.298877927616771
Si	3.8901101897105907	1.224390378426039	4.260503941173958	14	0.9740714780751242	1.525153964858639	-0.8267731113943727
Si	0.0197947867175685	2.6408410279783783	2.6061386512639	14	-1.047581693172946	-0.45400140655270355	1.1388775293228919
Si	1.1625132199460175	4.010240109102628	4.177700396735679	14	2.1175582279054455	-1.2080456617560476	-1.1970361887751737
Si	-0.176726281415508	0.0887403404546505	5.531749088160141	14	1.3355197779763295	-0.3182686429335742	1.4309856898450237
Si	1.1971663966935089	1.5146537836573934	7.018998490206053	14	1.6793475217869638	-1.7640438448011533	-1.773965997342137
Si	2.723136172757797	2.78850652889386	5.590969448422892	14	-1.2074483939901772	-0.29481887686116365	-0.1008948007521869
Si	3.940294156036821	4.183817592631	7.008912496973822	14	1.2814702590467084	-0.3804464542223112	-0.982782640010318
Si	2.6970929902329432	-0.08162274523060349	8.194434901480525	14	-0.4428723771744426	0.17942381343493766	-0.8064942895133007
Si	4.325415097618148	1.207563989716656	9.307731754451046	14	-1.2108399390179845	0.4200095944466219	1.6922482998413384
Si	-0.23419184285574	2.6287378360996994	8.264922054183184	14	0.04194244108757561	1.6642283940623646	0.5485826010807348
Si	1.3699402807611014	3.984049326676815	9.47427364270035	14	-1.214963220619906	0.6134490172027507	0.657174519829849
Si	0.031914378585243	-0.101286332036208	10.916882274700512	14	0.4343216522112261	0.9503921122976243	-1.4369097736131768
Si	1.4240602444462513	1.405839856672251	12.152621445511436	14	0.4055214159675874	-0.7260986543681226	0.23139022283417457
Si	2.8314089001060885	2.772664139524207	10.714686810374992	14	1.2270600140406704	-0.9260519724528465	0.6807615829263555
Si	4.2897287215639395	4.309802308094431	12.147635848856805	14	-1.0767429126035335	-1.1737008368895097	0.13737852813455614
Si	2.69568259117933	-0.032701578057027	13.771201959433313	14	-2.782448634801059	-0.9874394259661703	1.6908725013845274
Si	4.071149668231915	1.672044478047207	14.803253266920128	14	0.6032589554874079	-1.4719932770381932	0.45489717964624315
Si	0.153667896887835	2.524811105835216	13.73731958216861	14	-0.1554806522515907	1.0884478695735076	-0.8617056909370967
Si	1.3336963050810466	4.134929225435415	14.988359942712338	14	0.09494757703615236	-0.5591161624668495	0.11838757290834634
Si	-0.1999650658221315	5.2568688726065655	-0.0589907604168135	14	1.4055219769753409	2.333387350010488	-0.2740798271277852
Si	1.3531794920077005	6.821493422733248	1.3452746973118694	14	-0.7059337324527332	-0.7856842772730863	-0.3034572765157972
Si	2.5189563097638223	8.394121167489732	-0.025337982998047497	14	0.6513653644695063	-1.25357608031789	0.7723474397564141
Si	4.201627980680113	9.544219595766156	1.3174275159975104	14	-1.929575461970267	0.1778286996943178	-0.3407025652939943
Si	2.645105025117209	5.240846083357962	2.736994163458995	14	-1.026349248328631	1.6255797960004308	0.591333654791497
Si	4.031068095126913	6.820640623305481	3.941852154991393	14	-0.3395311697101348	-0.4931498274888742	0.9302449310089441
Si	-0.1857954753300195	8.179396111571652	2.575552671787293	14	2.0109139214363436	0.5433619717281741	0.10846284926204276
Si	1.443789431207838	9.416676881348154	4.269851934901394	14	-0.5364814367809257	0.5843582460579352	-1.1024143707830838
Si	-0.074423150061579	5.316532032572194	5.429249156938266	14	-0.6516463862809986	2.4740772046868633	0.5607693831877046
Si	1.2326887728577618	6.798221838348633	6.8928005748856815	14	0.5651706012747342	-0.19398423997346825	-1.7042453343756816
Si	2.9477176220621746	8.085325774693464	5.674527392354963	14	-1.8602366081438535	-0.8016318151318368	-1.3469714810722688
Si	4.133666426282762	9.600143558240811	6.859344597334861	14	-0.7050333313696174	-0.011336260467064894	1.4485429967447185
Si	2.538357496745499	5.510609502344941	8.224397681375304	14	0.8527824128129907	0.20936664888285017	0.5499990230016044
Si	4.26760513640901	6.873399387904004	9.279212173587872	14	-1.400275379459047	0.714194179625305	0.1145322004807843
Si	-0.1356115090037895	8.169178918427455	8.055231794886721	14	0.49299581828019734	-0.047857268876576264	2.1850304592694316
Si	1.4817226057544295	9.358604520315088	9.645932327516247	14	-1.0976593686040022	0.2506951100199744	-0.8348065299671755
Si	0.19158467144543098	5.421787161945313	11.099889751901296	14	0.41920998069205573	0.4509693020486529	-1.7450523753538798
Si	1.4879874015507106	6.922418955011555	12.337662521347664	14	-0.4937712636447541	-1.282799263386693	1.168063945585617
Si	2.8734584718905505	7.9987174328082284	10.996832221053573	14	1.3428813667289774	1.6672095906810764	-1.0939430929742602
Si	4.20904077570608	9.520685611557614	12.469305233014541	14	-1.5762415704594492	-0.0447464885497291	-0.5083450599309494
Si	2.882560465783053	5.410339969626454	13.707356802273832	14	-1.3874867015966303	0.17755359142506194	-0.9438062260200651
Si	4.24416955213444	7.033282880621134	15.436161642234465	14	-6.871575159428622	-6.939743646113303	-7.745856383597096
Si	-0.144910302764238	8.105448561190942	13.554459704868785	14	0.35159299609854544	0.4249461166613061	0.2851749179158202
Si	1.108016056513971	9.527967206671617	15.002365533314494	14	1.040673133177708	0.7620535053861374	-1.172407313802943
Si	-0.0230747845166685	10.843803923736564	0.0907083391341105	14	-0.925485557950818	0.7993193630068955	-1.6378465394828572
Si	1.5148833835033304	12.18150182613251	1.146162430917504	14	-1.4004147333673989	0.4900225920879781	1.865366220368081
Si	2.789047728530712	13.711833999269604	0.101384731970181	14	1.1316424389519952	0.4203685207493146	0.3236078002413937
Si	4.043843686554408	15.163971024876151	1.5778593412460504	14	0.6750079634409282	-0.2128571814654832	-2.9230608420967656
Si	2.686285397484909	10.866649108407294	2.622555040248396	14	0.7891701818661431	-0.6996880034090295	0.9603913979982123
Si	4.200397981505451	12.207807408481294	3.8952105862881914	14	-1.216388898519928	0.6632610974542356	1.0530563477311372
Si	-1.6399988995499997e-05	13.60826806876302	2.7035381859081746	14	0.7916276443311406	-0.3321047891034191	-0.5138924767697008
Si	1.1804876078850854	15.139535041272858	4.2253915647345925	14	0.6644425203488437	-0.6022665088338306	-1.2982670329927037
Si	-0.030356379630670498	10.900629885605971	5.489305916639787	14	-0.18520957173686686	-0.5574202613976798	0.4663864208798569
Si	1.236395170370745	12.293202151180862	7.014996892891152	14	0.5888885336320362	-0.9897747609284607	-1.5368980026294792
Si	2.518169110292038	13.557264102987016	5.39956517685641	14	0.9844610575633107	-0.27242609218586594	0.008093325326762124
Si	3.9980549172789717	14.808304463530742	6.826479019387879	14	-0.4128007293499907	1.0780878577965027	-0.8363887881811947
Si	2.6660806110424526	10.853758717056833	8.272006849429241	14	-0.026084891915030318	-0.13685685086509808	-0.13319688244186728
Si	4.069230869519442	12.199574614005552	9.543940795953233	14	-0.36628172079255145	0.6716920089095332	0.3807251620390153
Si	-0.20996905910938649	13.675754023479502	8.070975784322401	14	-1.144500022436992	-0.06914293560101818	-1.612805516327807
Si	1.099258462390374	14.906327197756847	9.250889392592644	14	2.002930639417284	2.2198424539726402	2.3076364446765454
Si	-0.0352435763513295	10.869502706492511	10.743927990753969	14	0.5326360916641123	-0.31376895151278306	0.4842707723762749
Si	1.2928603324822514	12.189373820850353	12.206495409361654	14	0.40550727488832666	0.8056656222686172	-0.31417492904283445
Si	2.490338328966675	13.718098795065885	10.724198803992383	14	0.010750819785667177	-1.7443700040019126	-0.26543217149399917
Si	3.7256347000747216	14.883219613262186	12.25275977831796	14	1.1449697633789828	0.47806849501248155	0.48997939751859954
Si	2.825685303946659	11.08806535983554	13.634229251342898	14	-1.0487212070508356	-1.1744747395908741	0.7804795887735105
Si	4.188081589769831	12.397637281104206	15.12264305260749	14	-0.8875383574202204	0.055017540082656656	-0.9183612822192198
Si	0.05608796236460999	13.819860726782961	13.505046538025343	14	-0.8440907912782302	-2.6934395397228528	0.06074004919371024
Si	1.084006472624559	14.955084365040468	15.472192418057578	14	-0.0903869504192737	1.154695226362975	0.21990535247960513
Si	5.375801592801931	0.178005480557157	-0.159506292970233	14	0.22020411491780634	-0.17632460308203116	1.2788826986525113
Si	6.94262374145401	1.3431426987424544	1.4302922402645415	14	-0.8014855192391204	-0.5844875726555386	-1.205498724825909
Si	8.344790000591269	2.4234427738540307	-0.100499132564424	14	-0.7934158480813036	1.5289453167637292	0.12031693034058549
Si	9.68517750118248	3.9164321720483684	1.1139692525193374	14	0.18150589452319357	0.6306561395578417	0.8974900776723856
Si	8.104694161697148	-0.160621492221927	2.7391425620174052	14	1.4562897370743249	0.460746958470644	-1.700678697075572
Si	9.45605325492635	1.2140747853478695	3.99208532128461	14	1.5340587310244398	0.5605428688089995	0.27815657172341196
Si	5.404698373412002	2.526188704910838	2.624801838740779	14	-0.8377887550280152	1.4328949926557655	1.4362330586929135
Si	6.741067876699315	4.035069692441816	4.140046022002011	14	-0.07239846915738968	-0.6253496352875881	-0.047757509990154524
Si	5.363534401033297	0.04396837049693549	5.561449468230991	14	-0.014438556146355565	-1.0758455968468017	0.4056461145756146
Si	6.904313367160523	1.2554027576165296	6.839713810507248	14	0.43759544061537065	0.7589604656859993	0.4119720621053069
Si	8.30834922504327	2.6681962096228724	5.428970357125342	14	-0.8665951619244222	0.3521786938904752	0.5155901776125947
Si	9.608409152694545	4.138750422871366	6.959007330460515	14	0.5559076801378368	-2.0466743968921555	-1.0319352317471848
Si	8.26064165705536	-0.25137903132302397	8.257181259377308	14	-0.7598564958900708	1.459452967949703	0.36515531955179453
Si	9.515011215365172	1.4186810480557275	9.777689839106095	14	1.475516976879456	-1.7843730603465005	-3.214285827941426
Si	5.596873444461271	2.847431689354692	8.220379684071407	14	-0.614268685578814	-1.1215068846694396	-1.4396587994214791
Si	6.763929461359042	4.134158425952626	9.644948328176518	14	1.2259441543317262	0.6769743447897772	-1.0497666184740078
Si	5.264347267588513	-0.1347915095540145	11.07651976758271	14	0.6723990628725738	0.3978762342981271	-1.2020202764382806
Si	6.8158354265298	1.393441464991653	12.106767076280018	14	-0.5950820692377409	-0.5605780929518857	1.0258532821123745
Si	8.158797725393303	2.775599737554402	10.808970347110122	14	-0.2312776084211521	0.9763124534721654	2.0122683797189977
Si	9.474093242821398	4.13348602640381	12.40017927939851	14	-0.42695903501645005	-0.14339568591529867	-0.19838854338688192
Si	8.04207900371233	-0.0330131778479415	13.57295889245571	14	0.5077061402588926	0.5126123234307991	0.15777587797088685
Si	9.655198321298705	1.181848806971712	14.875462418467315	14	0.21967138189547164	-0.5683834544827912	0.08312332077932337
Si	5.577734657303523	2.887726462316635	13.495321344551012	14	0.3769330388023289	0.38388273648268917	0.37347387370460167
Si	6.814802227223083	4.133059626689928	15.247807768621147	14	-0.11069765400631545	-0.5797233144973042	-0.37720891840318077
Si	5.3627144015835215	5.506607905030039	0.338003773197255	14	1.0944899670758554	-0.9752873537810222	-0.80623512209703
Si	6.858786997709014	6.734032281420245	1.7145368495345474	14	-0.8836012238434778	0.7136197946967839	-0.8585213769980933
Si	7.9380374735248775	8.115321354566234	0.1272475146160845	14	1.462957384501065	0.8622942169448785	-0.5628864313083146
Si	9.293135764245052	9.842174595836402	1.2375267696114345	14	0.6129219406121204	-1.0822129391721484	0.5652947856616974
Si	8.259132858067773	5.267364865563685	2.760757747513474	14	0.3709889004126785	-1.1264148676150703	-0.45919118264142245
Si	9.771933442968674	6.6300563511887765	3.8226898349500904	14	-1.7492494476784894	0.9623750057527066	1.0347667900362638
Si	5.393447980961089	8.305512026947047	2.7952305243820157	14	0.8509672124569663	-1.1027074767895808	0.139581708283391
Si	6.742953875433798	9.436898067779605	4.307604709569034	14	1.1878699411983136	0.48624306726736044	-0.5873445848872872
Si	5.285421253447731	5.486681918400507	5.464492733289596	14	0.4288721944851723	-0.5668071098110083	-0.34773093879715106
Si	6.83700781232299	6.7538762681048015	6.666611926659745	14	-0.6282184746038093	-0.8601545430974513	1.8940322449140081
Si	8.270170050661745	7.889723105944135	5.475972725586446	14	0.9531843326753053	1.3320739826262669	-2.1577343196380796
Si	9.466549247883469	9.389551299549597	6.8373358121029	14	0.564716029854132	0.9015357118936386	0.3149174642592932
Si	8.313351221686895	5.459310336767017	8.186382506883735	14	-2.5041241699002414	0.19280950195269259	0.3705021901755745
Si	9.366656914911879	6.8829441814993855	9.65190192351061	14	0.8979001689709493	-0.680667480471638	0.5232572136772762
Si	5.721841360606981	8.383149574851743	8.074567381912416	14	-0.3805847796885352	-1.0717580536088305	0.45135445362561105
Si	6.852161402154832	9.429616472665602	9.865692180055948	14	-3.455448564986951	4.237363858971232	-3.3359225066428437
Si	5.467018331594902	5.643252613340545	10.725674803001976	14	0.6733668269150775	-0.12530050378262847	0.6951024370705454
Si	6.95556333277146	6.752400269095205	12.13956705427102	14	-0.11627772388263284	0.6991035911697598	1.1696932550269947
Si	9.414446482844765	9.236703402111537	11.87004963511897	14	-0.002517883440021014	0.9480945725835401	1.4487497136124585
Si	8.15327092910182	5.52238469444371	13.821238325858584	14	0.2222175474940143	-0.21940295850004818	-0.1122886539784231
Si	9.64650632713109	6.908167364574465	15.171646219726044	14	-1.5990557592967194	-0.2609026552514943	-0.022512598183216583
Si	5.5536758734471245	8.11409135539157	13.624290858011625	14	1.0219169198672278	-0.14046668273458598	0.6216418443054026
Si	6.964862126531908	9.718436678865354	14.992853539697103	14	-1.2959766923735159	-1.836283419649758	0.07327598740315622
Si	5.4138823672494825	10.887821494200486	-0.0679779543863475	14	0.9529627033967085	0.4649023788890674	0.4883678287039308
Si	6.616739560124429	12.323230531031623	1.4712594127753005	14	0.9160100064039443	0.17608009096608507	-1.0895711854878802
Si	8.111860956888183	13.55214730642042	-0.138678306945948	14	-0.3166437043712406	-0.5168425630140387	0.608193163707304
Si	9.448919259713307	14.941898773888086	1.149344028782631	14	0.8791223583757798	0.02034567061939578	0.8510772557646684
Si	8.060053391651397	11.109139345694757	2.886512863130968	14	-0.8888588771126484	-1.7141230067946265	-0.5182332738817068
Si	9.448328860109468	12.305879342674384	4.198429982825991	14	0.8712162095163245	-0.27676637507680796	0.04819074123659948
Si	5.462262334786208	13.892037078352159	2.737453363150869	14	0.2073023084213033	-1.2798373500578824	0.7670795020659628
Si	6.790185843740838	15.198279801854737	4.138980022717304	14	-1.008620962925146	-1.3228082332735174	1.3517869042263742
Si	5.3530056080981865	10.846099922195934	5.528764290162959	14	0.9139960596066722	1.3300014146276955	-1.4322054222089018
Si	6.850521403255282	12.119050668037648	6.812391428840744	14	-0.7447659074345258	0.8944317478940694	-0.15121775963078518
Si	8.083111776179072	13.66712762926787	5.449962343039583	14	-0.16677140415448893	-0.17807783979984013	0.4074011510671477
Si	9.584317568860154	14.814962859062916	6.807865031877986	14	0.018987869899825576	1.3034326406914132	-0.09924955045782413
Si	8.066941387029509	10.823631937272097	8.274548847723544	14	0.7319209223655979	-1.0335563136515382	0.047620727187122645
Si	9.459677652494355	12.238786987693794	9.49172323099156	14	0.15670269861025707	1.1664976282245827	-0.835319208368013
Si	5.4019759752387495	13.516690530212149	8.091164170775862	14	0.5322239434812926	-0.24409379711049423	0.9009469287753247
Si	6.649900337873331	14.900160801894538	9.62041394463925	14	-0.21932274001405958	0.6502101668491639	-1.0129519898369355
Si	5.3162040327922835	11.005196215441279	11.146219720813583	14	1.3691230960685365	-0.31175500471551104	-1.2284916054829291
Si	6.824445420752437	12.492576817399154	12.210907006401444	14	-0.7568112787488874	-0.9842893077279247	1.1083675080413546
Si	8.157075726548776	13.707832401954702	10.812889944480046	14	0.29644792919200946	-0.5078017853768021	-0.2164294751972969
Si	9.379498106295355	15.18015781401471	12.080346694008268	14	0.9509466997151804	-1.1358099435654232	0.8829281084706629
Si	8.150433731005599	10.900728285539945	13.458995368925981	14	0.5749793680710991	-0.008436310776469877	-0.7412779459572127
Si	9.500300425236208	12.275080163340835	14.821276854826182	14	-0.0668165995073482	-0.4507253041537709	0.4216864693364224
Si	5.318008031581789	13.775613556473102	13.62675085636095	14	1.090625852890205	-0.0456926553075436	0.024699323258002517
Si	6.815769826573818	15.060323094424591	15.127431849394178	14	-1.242360661800872	0.29209016278489053	-1.4366053547432713
Si	11.171803703646564	-0.17670988142651248	-0.10987992626984999	14	-1.8464770809125488	0.29377655076437564	-0.023528441895207086
Si	12.446394448387828	1.3329747055652446	1.1425708333274893	14	0.07385397187912551	-0.6527946419169767	0.596474065658069
Si	13.781468352544497	2.642628626778888	-0.1453531024671165	14	-0.6355872624513537	1.7623692839061411	0.4444618344833582
Si	15.013107526106547	4.121218834635177	1.455072623636742	14	-1.2855202641470056	-1.1337903403364469	0.05362785765711662
Si	13.861139499084636	-0.056809561880412	2.4402363625854226	14	-0.5345898745968929	-0.42371455721295515	-0.7187460644840952
Si	14.863228026676671	1.1157076513528603	4.137881223454604	14	1.2585524546650364	0.969625522755524	-2.4531597202442663
Si	11.042834190185953	2.508624316696657	2.59283826018855	14	-0.9973590074018335	0.6609190776181126	0.11801270575266877
Si	12.220353400062852	4.049731282603792	4.003532513603469	14	-1.3347726147702943	-1.1001800802598753	1.479868829744339
Si	10.960637445340506	-0.1213599185667	5.37985239008382	14	-1.2806680741868224	0.7539635224962914	0.8059422732010652
Si	12.26966816697232	1.3934250650026574	6.6503759375542	14	0.6153873735036104	-0.6899260307294912	0.6243949838822171
Si	13.695893209965977	2.635084631840958	5.207308105862165	14	-1.00751255942163	1.7884189516782851	1.8486879743773446
Si	14.970303554828291	4.102047247499437	6.831923815734385	14	-1.0198471800845086	-0.8283851944301056	0.08404634758925653
Si	13.72488839051002	0.017744788093131	8.216460086701481	14	-0.999958137769971	1.450091316368512	-1.7945489809825825
Si	14.90890199602914	1.2791991416489998	9.634091535461497	14	1.088575910618451	0.04459453622530836	0.8468105064858827
Si	11.091263357689664	2.611337447775474	8.247898865605855	14	-1.2091504657121153	0.9375247586124112	0.6072336272018247
Si	12.302304145073364	4.024983699209583	9.83251500231805	14	0.03024699720728603	0.1728785506214367	-0.7547304832132916
Si	10.954700649324133	-0.10901072685308849	10.795555156111803	14	0.3745755923342851	1.5552155853723424	1.0420286199024902
Si	12.293366151070819	1.448217428236623	12.300664146173814	14	-0.03768391934581435	-1.7506748684679796	-0.02087351854162218
Si	13.826929122040022	2.6730506063655404	11.106908947191371	14	-0.6424145755184749	0.72706179042105	-0.61687655770504
Si	15.35191489876458	4.001712114824969	12.292201751852136	14	-0.67219183178377	-1.0823142407217623	0.6791081050949682
Si	13.759754767114455	-0.1275755143959945	13.528514922277905	14	-1.9674738114997816	-0.3943427642566476	-0.5077673325655122
Si	14.883646012976069	1.3412567000079718	14.768501690238663	14	1.364268849224097	-0.6417062360027741	1.2035341432507838
Si	10.893282690535987	2.755624550957883	13.648366041857019	14	-0.38495848694863916	-0.6109288197679416	-0.3473627565153058
Si	12.263813370900925	4.025147699099538	14.945080371753214	14	1.582143542721849	-0.11424089424801154	-0.009905697466934503
Si	11.170655704416879	5.517923897436934	-0.1320363114027705	14	-1.324925281394127	-0.5715716250797748	0.8489887469131122
Si	12.436734854869478	6.75530306714741	1.3544914911273405	14	-1.3545994363360843	1.0112874562526717	0.17959710593351563
Si	13.502635739643004	8.183610908743495	-0.1256075157165345	14	1.1027666122119442	-1.179905942469155	-0.7471205256867173
Si	14.871296821262458	9.47063284514335	1.150032828320442	14	0.134060259608373	0.5182913808619423	1.556368726108429
Si	13.503275339213829	5.436415952129299	2.89328605858611	14	2.0774374149371946	0.508581601620403	-1.5170706668426255
Si	15.037789509544773	6.87651538581315	3.9447385530546013	14	-0.6742790550826661	-1.724323095820718	1.575106170350072
Si	10.76906917388407	8.22775967911938	2.5589394829348513	14	-0.1985394672691746	-0.19053973017606587	-1.909969241240946
Si	12.025472330829325	9.20203382537505	4.100407248599887	14	1.189320044598877	1.8651242793574552	0.6964741217588444
Si	10.766035175919903	5.510412702476995	5.4906671157264135	14	2.000252576115818	-1.069945424358126	0.5084967551448382
Si	12.311684938778791	6.6637911285525195	7.004336900044076	14	-1.3173106958779766	1.2136511855750345	-1.302159686447408
Si	13.509736934878056	7.932691077112345	5.370258396521452	14	0.2405109618468679	0.13717566792479644	0.7316931224342328
Si	14.840218842115986	9.324000543534583	6.726094686746424	14	-0.3313154597701336	2.278170806376052	-0.42982633166947926
Si	13.596164876884341	5.4386955505996735	8.342182402340985	14	0.6789013882272283	-1.5930206037787356	0.5253837748875707
Si	15.101864266550193	6.697624305850235	9.610901951021859	14	-0.07143636154659026	0.6980535517570114	0.067160356288652
Si	10.838178727511108	8.098265366010914	8.346003599776935	14	0.18631694679825464	0.11778670559502775	-1.2689746871907888
Si	12.00639914362756	9.69564069416161	9.52070201154661	14	-10.009744957030257	12.171263686589063	-10.3294822153227
Si	10.800212752986525	5.525336692462901	11.050492985046851	14	0.7276125211806258	-0.2719316686328015	-0.12039097817380574
Si	12.384533689896802	6.785331446998169	12.408559673775208	14	-1.040796032012011	-0.4731566554088707	-0.12128649415681332
Si	13.656680836277738	8.113779755600657	11.008804213020289	14	11.535090726345778	-12.866418831318668	9.076232922491
Si	15.020257921308584	9.620873144331124	12.209234207523902	14	-0.7774947926073505	0.2501744611926444	0.059414130180109874
Si	13.822501125011238	5.174458927904178	13.536632916830678	14	-1.3463554442375614	0.5604711349705676	0.08374707092999129
Si	14.91236239370719	6.6758287204752165	14.866212824673852	14	0.12632791746855968	0.5558935390585759	1.138843333622134
Si	10.78397676388098	8.144841334758134	13.62755445582173	14	1.0568441000887796	0.7291305017616413	-0.45546565103252784
Si	12.206462609383662	9.541857997350805	14.98112754756532	14	-0.7259119921218797	0.8721227812522087	-1.123113825494532
Si	10.933921863266837	11.062251777156623	-0.111716725037346	14	-0.6010987127974193	-0.6254031142782471	0.1323345337174896
Si	12.401950478210024	12.233014191567378	1.3189691149630873	14	-0.9433166875671088	-0.528532607573156	0.9555314947220683
Si	13.573516492081556	13.503275339213829	-0.23894783966443497	14	1.1434492116926473	-0.23458944918403482	-0.09668667267470053
Si	15.27381815116801	14.821736054518057	0.9440817665149529	14	0.11917227425205555	1.1035173749654275	-0.16877480941994832
Si	13.538617315499133	10.592162492589612	2.819879707842252	14	0.33517288908195175	1.123597707515784	-0.7213979025112959
Si	15.023718318986635	12.215646603221144	4.018636903468324	14	-0.05956016896229428	-1.0256581352185752	-0.42864259478008304
Si	10.705814416328426	13.447384176717167	2.6192586424603004	14	1.0954500178023987	1.6034325518832073	-0.6283100059532066
Si	12.080067894195343	15.306191729445128	3.6970003192885783	14	1.012907509714897	-2.3644362749671286	-0.796008293575609
Si	10.931084665170614	10.881819098228132	5.436645551975237	14	-1.5612386566953214	-1.1943671243423277	-0.06382023336724763
Si	12.076279496737383	12.457382441014813	6.583365582518587	14	2.036050075488239	0.06878246663513342	-0.06258867391889669
Si	13.558920501875562	13.760263166773315	4.896265914573512	14	-0.9471784877579714	0.6242083216359743	2.2564609072737856
Si	14.794413672851555	15.103602665383715	6.757549865639793	14	0.5771851193252541	-1.591640948663944	-1.4393014157819786
Si	13.530925720660244	11.101956150514729	7.956503861133811	14	0.4909620739719603	-1.0360626271176185	0.6972423680285046
Si	15.077936682605758	12.38300849092022	9.506253621241575	14	-1.968401980520355	-1.0593650688551846	0.2107239353813563
Si	11.011985810885417	13.700009607203848	8.206980893062083	14	-0.2950541329979572	-0.5672056311356314	0.6078157254463062
Si	12.520932398372375	15.120707853906023	9.500021625423283	14	-2.3750161162490055	-0.904305306544502	0.054169589548071814
Si	10.769380773674984	11.041325391198365	10.863041110828284	14	-0.044593507783180296	-1.3554568999603538	0.6933306883944313
Si	12.175811029951074	12.386075288862378	12.055615510603053	14	0.07074576265759851	-0.1381336617670836	0.35559543575042
Si	13.616500863238763	13.749176774212357	10.914963475988039	14	1.1283635083372103	-1.1411624706209076	-0.6094514626509845
Si	15.130088647611448	14.954001965766764	12.149308647734346	14	-1.2314339784113066	1.088995257896167	0.3286224840578105
Si	13.453124172865591	11.054215782548829	13.42499819173831	14	0.8889640353202426	-1.5894367400729812	0.8332782649648794
Si	15.048679102237784	12.147373449032877	14.754676499515458	14	0.1749621743728847	0.8819572591017749	1.0448820325867905
Si	10.726150402682846	13.544472111570526	13.370501028306261	14	-0.0740151801826988	1.9065758964394146	0.4213748513716205
Si	12.228504194593615	14.810469262078149	14.816192858237578	14	0.36007661521290607	0.3405665538225584	-0.8158659684052406
H	1.1409816743938255	13.632244852674441	14.591075129293047	1	0.7093419896651215	-0.2567024976005004	0.2738237450378984
H	-0.08924218011791281	15.561523158116067	14.586056732660424	1	0.2423081644656514	-0.3872102609880248	-0.05354378251314777
H	0.3155948282338038	0.2637364230311332	0.3323392169982093	1	0.6906143156236948	0.4240390307043579	0.4895541366986471
H	10.457133183195163	5.895523804064925	8.727823223573468	1	-0.5303958875986674	0.35601246903334804	0.4687590368692895
H	1.9226199099094514	4.457830248766713	12.64981663189021	1	0.3629076592809211	0.1759543639159298	0.3405477847537213
H	15.72230865022795	0.3816047839406913	15.73699156037562	1	-0.7657353282045894	0.7284154773721081	-0.5345348529430417
H	13.026854018895655	8.904408465083616	10.473746372047604	1	5.50586109190407	7.570685178361683	9.962753636425507
H	10.342159420343311	10.183612526729313	12.85726337269209	1	0.1904047471467581	0.0002666236216993558	0.008668481586879247
H	14.367000439648631	14.066387001362216	1.8420943239426468	1	-0.8184363023937926	-1.1746765713585057	0.9808977627001175
H	3.5348323081043755	0.5972531592392195	12.86990776420762	1	2.259341830785011	1.6940043647749998	-2.294177479657166
H	12.695349561337316	8.939909521262173	10.049175256937604	1	-4.9267679553207335	-6.5442582826523825	-10.359013416808855
H	7.596325662815741	8.652096274386748	10.627678308758266	1	2.3858286425623563	-2.7229082633497295	2.2947516074751544
H	4.887695280324462	7.747259681538026	16.073527534557776	1	7.589159598529075	8.231541006788921	7.036002486862733
