220
config_type=divacancy dft_energy=-22976.298506510153 dft_virial="-40.02538593709933 -13.37372303073286 -1.0216869877253394 -13.37372303073286 -19.487881097901685 -0.9418676918092971 -1.0216869877253394 -0.9418676918092971 -26.16077423648281" pbc="T T T" Lattice="16.3199774331 0.0 0.0 0.0 16.3199774331 0.0 0.0 0.0 16.3199774331" Properties=species:S:1:pos:R:3:Z:I:1:dft_force:R:3
Si	0.7070793422664906	0.5487102812556882	0.6320237660516637	14	-0.31867333491096556	1.8636407515877298	-1.1200678370217527
Si	2.589197059716181	2.4828724067395345	-0.0357081106236228	14	-0.28707187942102547	0.27117344967388984	0.5488823919610641
Si	3.9115069112556755	4.044449447425708	1.3283482431897413	14	0.8851248608561975	-0.06517186343404947	0.1949648595425727
Si	2.577234516257719	0.3252081903093837	2.659878881978937	14	15.873157324501783	-0.9082149292943194	17.782519784887175
Si	4.0320299445991195	1.4592344622032032	4.124841656261158	14	1.2864764582155686	-1.169040194275677	-1.3998768581344239
Si	0.06862550510618551	2.2463796137564827	2.6680715106503534	14	-0.338927217070432	0.6870098830753792	-0.47115607835926354
Si	1.506007517526468	3.833203659531662	3.916859863853732	14	-0.18001773876389188	0.833601967124686	0.6366447580695306
Si	-0.0496943312837895	-0.026699483080551603	5.398681174824346	14	-0.24414470499583313	2.930815295742332	0.5676990262465678
Si	1.204757054088875	1.6425404487317825	6.729869094087447	14	0.17547151033680602	-0.869005058940997	-0.38859068743441233
Si	2.9643117410159845	2.7466032420584305	5.460289089634299	14	-2.3032190286259984	1.471381096861466	1.2933873322055947
Si	4.316405551370886	4.145241628052534	6.733753248716525	14	0.5007302173042668	0.1679132320271667	-0.0222542020985417
Si	2.444748939455813	0.20272675967396822	8.079482267872518	14	0.20380534807536985	-0.2052022295958063	1.277368060508412
Si	3.9265376104715606	1.3605312386878146	9.619533258324433	14	0.20652583461461854	0.8726128339262288	-1.1585410857008525
Si	-0.2203033753694169	2.766072975136119	8.197377784849232	14	0.6979072558642949	-1.049199689750915	0.6657643255939317
Si	1.2931623718439778	3.9829884124126536	9.463497954086565	14	0.5176879424433034	-0.4136268254893542	1.3466675764234273
Si	-0.1792096721928711	-0.2191936169039661	10.93970519282019	14	-0.48161147814364563	1.8295751487589595	1.2066546937778475
Si	1.453293990417555	1.1349238706526403	12.36221970579892	14	-0.8511567029190612	-0.8171088407170003	-0.16668938589477622
Si	2.6351051562354915	2.6061045563368728	11.159241529250252	14	0.7648215573738089	1.6614757687066144	-1.262487531357523
Si	4.178371182241727	4.0974730541058495	12.56569718443481	14	0.2926151824912647	-0.9527942959982386	-1.9829811761277227
Si	3.0058460835832244	-0.14418700062143852	13.637903381812047	14	-1.2331982708819922	1.1916126992128533	1.1144587136553175
Si	4.382289300268312	1.315749220611388	15.105689512190194	14	-1.5043514088238528	-1.6720530388831716	0.43615639296768377
Si	0.0551288837690118	2.4844391245731123	13.604088388570664	14	-0.07946309524556057	0.7979507636449809	0.10936222190303056
Si	1.2589067392119009	4.099855770811083	14.840734678563814	14	0.2401993438820659	-0.20381229005973428	0.4714568976817209
Si	-0.0488783324121345	5.521766444624786	-0.057984879819804304	14	1.5126985022457138	-0.7199673395111655	1.4487281163277694
Si	1.449393515811044	7.005921512368334	1.4238853910831089	14	-0.16394498807605015	-1.293705635044229	-1.065782290623742
Si	2.7883007844000014	8.312678425414084	-0.0456469768803807	14	-0.8152584162180896	0.9863765310268209	0.2722515141346279
Si	4.27167249322676	9.726886069879363	1.198016903409005	14	-0.21276590722661792	-0.6249434006470047	-0.15563928944984382
Si	2.7831273515537083	5.5177517301762435	2.7270355891161437	14	-1.18662912577081	-0.819413322415449	-0.3576024405633276
Si	3.8297927842481436	6.9409027222748625	4.167975356616842	14	1.9020242686911566	-0.016385654205303708	0.0347626294810621
Si	-0.1079892906748227	8.093925447900812	2.7142896867408925	14	0.21863805466730413	-0.8431353685412631	0.9711033940935453
Si	1.2056872928025617	9.429405521228817	4.041381291668285	14	0.7070696467831747	0.12277182170026286	0.5570212258519928
Si	0.30962261186077317	5.354405076048346	5.5419868966643975	14	-1.0556840173683286	-1.3469347142661905	-1.00782006361792
Si	1.4184018786655872	6.40280042635069	7.254393168787281	14	-0.4670199412307413	1.3147177361626072	-0.8928464043536662
Si	2.2335847514489324	7.874209591718986	5.585577556388207	14	0.9954191084377817	1.2370924669998884	-0.06577607318428427
Si	3.6165885990621254	9.605775517348329	6.670431736276097	14	-0.4575207355149222	-1.4322270194935909	-0.4450860988550901
Si	2.9522023177606247	5.175097483990876	8.380063612235354	14	0.8151812830584853	0.5678674336450376	0.2512885211278646
Si	4.2173106483971035	6.808727225044186	9.710207052942735	14	0.4835583190920618	-0.7939832910254604	-0.7155715207453083
Si	0.0839826038707326	8.006058689401002	8.37025530579806	14	-1.2989946557983056	0.24892541822811648	-1.3972512453814887
Si	1.3538237279628105	9.57192788415208	9.287193237876785	14	0.7028980284012344	0.2578435541415821	2.308288219875202
Si	-0.034190352722344504	5.460729729024993	10.719744536976869	14	0.16474537316221224	0.2377218267955712	1.483412584207099
Si	1.2983031647354042	6.84902124932651	12.300726030831	14	0.28712510130115254	0.29787257864990346	-1.1956459921285696
Si	2.9433895299467503	8.331919678807708	10.868191051708346	14	-2.4387368478403633	-0.5557888950720459	-0.01983916287132661
Si	4.034053621800823	9.74666588252828	12.250640020088815	14	1.8900148928512766	0.061872363976703454	-0.6155586091179321
Si	2.706570337415036	5.473916270790937	13.574516589461886	14	-0.5751146082109388	0.37443572420486904	0.3877033989884292
Si	3.9096790737831686	7.0767338944505545	14.751317522207861	14	1.2551069164255062	-0.9161791851340099	1.1027730399752447
Si	-0.0604328764347693	8.110996144295834	13.82822695863686	14	0.4162604086687819	-0.0025317674087498134	-0.8113156262096425
Si	1.2689761652881237	9.694213475058298	14.935912786953656	14	0.7731743072273739	-0.1944367545098143	1.244531446022673
Si	-0.0606123961865334	10.822185035324438	0.2880639216716481	14	1.261078565642082	1.0899347397801493	-1.182526155900918
Si	1.160856314793836	12.461265648840403	1.5302590039920547	14	1.3153602553821122	-1.4493528949205652	-0.3234365646270719
Si	2.5770713164833876	13.680090523476611	-0.07056758242072439	14	1.607454531935515	-1.023070317713846	1.8440669267854424
Si	3.989810162979689	15.146163056224282	1.3379933498527035	14	0.6119536623485525	-1.2862977663958184	0.4755374989353279
Si	2.7499161974773503	10.755060968142098	2.6333099587178506	14	-0.72424925831134	1.5240476182393792	0.40673754878401747
Si	4.0895905050056625	12.34785812565779	3.894142455266857	14	-0.4202849598264096	-1.482390312731808	1.523034345632709
Si	0.053823285574363805	13.477543283554406	3.2737548331249937	14	-0.5329736777926477	1.3520530136270095	-0.9203173791467882
Si	1.4157743622988581	15.217628237403828	4.272227372459485	14	1.547049754875552	-1.7885161394593871	-2.0936153238326307
Si	0.0901515553404444	10.768100630111144	5.632677011260134	14	-0.5620863033326846	1.0140629644457715	-0.44433944987011903
Si	1.346855097598877	12.598206579481545	6.597187677556343	14	-1.0671179798375592	-0.8943831540035188	0.9367899367119129
Si	2.89263440012981	13.815285216532411	5.4363803226948075	14	0.5074942811805124	0.2854621103800808	-0.48204290961636653
Si	4.054877913005459	15.358502282606347	6.873778655092523	14	-0.4324925678864728	0.25809706512614866	-1.786480338266894
Si	2.468249706959477	11.066348217701046	7.960476992430353	14	0.44371775660370727	0.7835212063672458	0.5383154062057874
Si	3.9512134163504076	12.281370537595341	9.364321451225615	14	-0.6127805298195123	0.8548804347542316	0.2609255380888436
Si	-0.1226772703646127	13.775187031979284	8.175704854818076	14	1.1248061270162537	-1.1444252032721756	-0.4664717815764857
Si	1.1721986991098405	14.98769607534888	9.587872502104219	14	1.7435032843984906	-0.11895475874197102	-0.8363584491384167
Si	-0.000163199774331	10.83778693375048	10.878929596859326	14	-0.04947655100720553	-0.13277213584297884	-0.4445695637962723
Si	1.4195279571084711	12.147987362034616	12.189472744669557	14	-0.5415046052448992	0.1569878341902615	1.791082616789959
Si	2.5678994891659856	13.565899641377209	10.900471967071018	14	0.6325392170943182	0.36970026242622034	-1.4070826379046708
Si	4.021650438951667	14.943893255918441	12.052221734457184	14	0.9041273860563478	-0.6044892293830987	0.4799934815656765
Si	2.925731314364136	10.991423201305684	13.781829262794556	14	-1.6214374882191402	0.38706319376371234	-0.5911583054086629
Si	4.321954343698141	12.407785082792135	14.99136807027133	14	-1.3592030004118094	0.30621452986112396	0.6635670589873331
Si	0.0556674430243041	13.631962910026397	13.762865449017294	14	-0.36456319399656445	-0.5040554278148144	-1.6355592841900537
Si	1.3159613803180186	15.054297903253362	15.047378232821728	14	0.47638313547512456	1.2015243102220239	-0.877109440020636
Si	5.721376088609033	-0.1863578223085689	0.06895190465484749	14	-0.6887209536659378	0.6392071216315902	-0.32736444222466204
Si	6.687306592941923	1.4249951495485598	1.4559051868068509	14	0.11531947292981365	-0.2112546115194349	-1.9537435948691273
Si	8.031485214241771	2.678255176568608	0.0133007816079765	14	-0.19322087880391628	1.6748923104882107	-0.4910541195424215
Si	9.574767560225439	4.160027527606923	1.2260383046616374	14	0.05423155318628738	-1.9649842102182824	0.26416050280265396
Si	8.091428491353547	0.1892790982690938	2.576157397747134	14	1.8780481973597114	-2.094592858075351	1.4892199397937176
Si	9.43869158838825	1.449540395607942	4.13690211958422	14	-0.08426617709412919	-1.915525399837786	-0.06483453441604604
Si	5.418020348082569	2.6894833210425806	2.7373334948764296	14	-1.2182200397289378	1.7245650368313439	0.06469492339716201
Si	6.935761929383436	4.062825742015379	3.8751949614670282	14	-0.06856957911462516	0.5215898518771601	0.7237026413202766
Si	5.548988166983197	0.128111822849835	5.27440454667129	14	-0.36557338127685063	-0.824971280786013	0.8499549682924238
Si	6.840551181038732	1.2957898882107068	6.881742804079876	14	0.7845681604536101	-0.3869716624143151	-0.5533445452441811
Si	8.11235070242278	2.6946730738663067	5.468465398328282	14	0.283868796413185	1.6215153927103407	1.0197667044879881
Si	9.6940176353291	4.210896897265895	6.949764470021036	14	-0.5415637406672625	-0.5419422073703882	-0.893571970275012
Si	8.294759090192539	-0.2145750632903988	8.119531492493344	14	-1.6639347738348038	2.104494955994837	2.104421422382681
Si	9.782308713242172	1.2242920670762958	9.647701539373962	14	-2.918625171198446	0.8507694944578467	-0.90906236560784
Si	5.561717749381015	2.687786043389538	8.162681512826461	14	-1.3301731644630812	0.2046599834837871	0.668877677026099
Si	6.894407106567961	4.131924526467125	9.453999727220499	14	0.2021490420281305	-1.1580862571697184	0.6560676589895252
Si	5.359855948511002	0.0164178972976986	10.797068590054897	14	0.6266485576953269	-0.23495248925523973	-0.16009604341178849
Si	6.824590243109159	1.2531621071554495	12.18312427344808	14	-1.5039960820686085	0.5657023058549407	0.2349933698298301
Si	8.114945578834645	2.6251662899787336	10.933258801734118	14	1.2460543117037968	0.3898638987889496	-1.5462735381793993
Si	9.505913575435189	4.047060643815004	12.158415827614368	14	1.0065980172592537	-0.1402897906885598	-0.8204214528114789
Si	8.194211709227211	-0.2371619120578092	13.171755866390411	14	1.5805137190594074	1.0955333216147716	0.6181459124015972
Si	9.18767401548974	1.4039750186147266	14.714597572983385	14	1.725224782456494	-0.16066374346647722	-0.2509756176104026
Si	5.537596822734893	2.6450766624471154	13.804203951855335	14	1.1208435394968412	1.069670573199402	-1.1610900795152472
Si	6.556289814108995	4.410832940798803	15.077047951795103	14	1.5328276857971528	-1.0692653670009469	-0.30719360676703633
Si	5.231189246428441	5.756398760180465	0.2176758590026878	14	-0.25382440230512665	-0.7026987677389229	-1.4971111762423157
Si	6.897850621806345	6.867985063103773	1.402522540623181	14	-0.7630837472879207	0.5333863401965316	0.9555196676375958
Si	8.171331100866004	8.28371046547033	0.0686418250836186	14	0.9521132101989316	-0.36619121788528225	-0.7407377567294496
Si	9.64778313926113	9.571813644310048	1.5338004390950373	14	-0.1679978213921996	-0.5520898458479487	-0.7272307120405838
Si	8.435943214966287	5.504059269109873	2.6628654378491947	14	-1.6435371668879408	-0.23526462144110571	0.0940764865536862
Si	9.58150771090531	6.739661080547307	4.2151237714210685	14	-2.59681637334956e-05	0.42399737879817145	0.377629294123025
Si	5.337611819269687	8.360218519676703	2.7761260812349087	14	0.7348962054420732	-0.8473200995603363	-0.11519503143231849
Si	6.955231662461125	9.646020581698354	3.9821560935635656	14	-1.9108917538298147	-0.25442604095004123	0.7581965902953831
Si	5.629576215547845	5.6205839079822075	5.205583201835907	14	-1.399324841822188	-1.1479800134878122	-0.2295279712507913
Si	6.718053430425883	6.887977035459319	6.703871370036519	14	0.2576378657159703	1.0690542792541626	1.0655454918237566
Si	8.167544866101526	8.307945631958486	5.433899686124976	14	-0.6386833874778761	-1.885336252500203	-0.793612537638295
Si	9.408907629572845	9.619827017918228	6.677122927023668	14	1.4469705087309161	0.086346458408661	1.546635292697944
Si	8.16857302467981	5.611036721183844	8.243041081707046	14	0.23276987794896603	0.5580123869529099	-1.01914166878466
Si	9.338372687106984	7.193519652961818	9.563392535954568	14	0.27975811322733224	0.25209327709307094	0.09375072750962345
Si	5.03613287614803	8.348174376331075	7.954748680351335	14	1.976383976986755	-1.3800595496583186	1.300440645430357
Si	6.685217635830486	9.6382033125079	9.337393488461	14	-1.1323510355782282	-0.8946983715157688	1.168672011993832
Si	5.779230408609372	5.304824984606587	11.091970582271014	14	-2.7561058610224176	-0.48477676590328	-1.2001744799289462
Si	6.8440273362319815	6.895141505552451	12.11510260750692	14	0.3627821893412979	-0.20645950009735875	2.5923652758193194
Si	7.979587686004512	8.502691922667667	11.159992248212173	14	0.905066353719266	0.9378284061507208	-2.258134953947734
Si	8.28397158510926	5.3658290602515155	13.49056662554602	14	-1.5340332770817704	1.443063199975887	1.54718859456284
Si	9.627970686657344	6.70930592252174	14.965615145881898	14	-0.5098555843065364	0.6738993028268802	0.48128289088373066
Si	5.496992718881341	8.318390417515669	13.5293102519722	14	-0.12655006096822047	-0.35757081596788975	-0.5117106367950232
Si	7.067366227403955	9.58966769962186	14.712704455601147	14	0.13419627107980883	-0.0717042707209497	0.8358853657595097
Si	5.739833983085869	11.076776683280798	-0.1032075372869244	14	0.19310209373812542	-0.7002289639683886	-0.3764162466329792
Si	7.051519529316415	12.449384705269107	1.2058994525091922	14	-1.2987611994352362	-0.09826635978339951	0.7258243174304627
Si	8.458807503350062	13.581909539239081	-0.1471409165368296	14	-0.2398129067524477	0.4558065795979795	-0.8053709735989282
Si	9.663939916919897	14.986047757628137	1.3113591466818841	14	0.21676628999423633	1.3354932955915317	-0.14183785320182093
Si	8.161457514518979	11.089995865001608	2.67321230354178	14	1.0283112587984362	-0.4915575419641066	-0.15643324677270554
Si	9.597860328293276	12.330004070345979	3.9956853548556053	14	0.10242537974927103	0.31217332355109917	0.0606420900810126
Si	5.559791992043909	13.606830144779424	2.7240327132684534	14	-0.5769336652249437	0.628994177078898	-1.7705410279451679
Si	6.880486165817527	14.960539632900202	3.984130810832971	14	0.44092759311028257	0.7725302453446767	0.5764461836562436
Si	5.217806864933299	10.648050876113262	5.5006157538714895	14	1.5899252500838095	2.0810608736648795	-1.5833347358166738
Si	6.5618712463911155	12.244471068619102	6.845104454742566	14	-0.723257582989359	1.0242941638462366	-1.3134054440072036
Si	8.159760236865937	13.55184814080731	5.417139069301182	14	-0.2227639073745458	-0.0074891155765273235	0.6297855632964396
Si	9.55856182263437	14.796980819065675	6.977638991476771	14	0.8801052919396725	-1.3192778485584218	-1.9937075704128486
Si	7.978233127877565	10.93606583785261	8.023912744712812	14	1.1252722684107965	-0.04407183051372225	0.4272619112231635
Si	9.203390153757816	11.984722307793882	9.76107642260171	14	-0.6694967991871907	2.026873800600631	-1.9607686259353674
Si	5.128046989051249	13.866546265649777	8.06885796256357	14	1.718736083960036	-2.1085683581535477	0.9727617570250408
Si	6.715017914623326	14.828347815692092	9.517827158961353	14	0.35486164229204975	1.0705900004618871	-0.1500203958831922
Si	5.462312766836003	11.185059733549416	10.725685008762518	14	-0.313211792989907	-1.3880065790923644	0.5451262641988597
Si	6.7942187651061605	12.260415686571243	12.324438958041293	14	-0.953423702580611	0.8538923589796986	0.3945818770514214
Si	8.080689946202567	13.607042304486054	10.996319194535616	14	-0.9436547879167084	-0.9971060106383308	-1.2311439577311938
Si	9.67268742482404	14.511446493896157	12.205531602463726	14	1.3925474081982778	1.5650603476431895	0.8322770765532137
Si	8.997578918348992	9.902146307533425	12.854185425519718	14	0.5209162222832814	-1.4446472579636305	0.23735313029266197
Si	9.49001791741535	11.748343754652863	14.923689123856263	14	-1.6615181919443966	-0.15277893478117907	-1.4399920146709702
Si	5.457596293357837	13.878639368927706	13.656002236785355	14	-0.47682356581646596	-1.506956966955291	-1.6164935097990276
Si	7.042918901209171	15.02095618935754	14.719624126032782	14	0.014247265910536551	-0.6282935508791576	2.498615833862356
Si	10.842128047747686	0.2682514690678647	-0.184252545219699	14	-0.13141973444458094	-0.7971040986630561	0.6781974195905718
Si	12.311040256568717	1.483469628691357	1.314721062033103	14	-0.7653640605963601	-1.4635569662617234	0.6492146348692026
Si	13.783689740221929	2.5716367639981654	-0.041191623041144404	14	0.5375484454887872	0.6161543342206106	-0.8732514964877537
Si	15.1567220816235	3.920515538798747	1.3407187860840313	14	0.7981777922447498	-0.6438333114341326	-0.4544603488523499
Si	13.610942779092566	-0.1915312551548616	2.744008365646568	14	-1.2405241212706901	1.041803133965913	-0.09069753994194758
Si	14.743059613626713	1.2133250422412525	4.131581806941029	14	1.1235779100048187	0.7644590315236679	-0.25562469025029433
Si	10.761425759341007	2.6005231240547526	2.7436982860753387	14	1.098058404149689	1.5496038909005871	-1.1247714170944314
Si	12.27941214030337	4.015628367278854	3.903771241952386	14	0.5548679251463687	0.1521616123938115	-0.28342553785599145
Si	10.796415790957573	-0.0545903245137195	5.461268288280285	14	0.009175246445480435	-0.6494699456274933	-0.4677336800676144
Si	12.137558896454864	1.4566559057687736	6.5533358981936045	14	0.33788334831045186	-0.23063431787005106	1.883198892647564
Si	13.58900872942248	2.798696610024886	5.418052988037435	14	0.029180759831020624	-0.06244572046309647	-0.6624977362846836
Si	15.016239715879374	4.052413596413061	6.7467602707307055	14	-0.8714717773851471	1.5883170237060567	-0.16277410671325476
Si	13.606781184847124	0.0922731524067474	7.957017157214536	14	-1.0355607473591255	0.9119700286143956	0.39407125553483996
Si	14.767506939821496	1.3476221365382324	9.601173283712196	14	0.8054702182642859	-0.28112722681031116	-0.3012443261667457
Si	11.002031186637199	2.666145753313248	8.306150434440843	14	-0.7166439287743421	-0.34047347980996906	-1.6047003639165724
Si	12.01713378297602	4.329592093136831	9.383530064664374	14	2.018905945213492	-0.07554755895350705	1.232276015403655
Si	10.931398324306743	-0.2116864272847401	10.858709144819716	14	0.14761101308768146	-1.7989244880164106	0.4733787989085315
Si	12.11090837330661	1.2460629169720512	12.06793787272526	14	2.0550063207926272	0.915778864035663	1.154905285667631
Si	13.54727854712604	2.8132540298952113	10.906281879037202	14	-1.3235376558528433	0.21954436929265633	-0.4848703541369334
Si	15.043379838350617	3.992405039391552	12.245597147061986	14	0.9730173248938635	-0.47911287799352587	-0.8715882484561499
Si	13.690600588943527	0.21733313947659272	13.72172278590845	14	-0.6771286111089861	0.055798384768385625	-0.6568659871914312
Si	15.399090066482467	0.9956491832385648	15.118370134655713	14	-1.1909552675824915	1.140910759410065	0.6587233536747062
Si	11.0159358074102	2.7096711331273253	13.42318143872475	14	-1.8996958757132303	-0.11948517776951756	0.6385553464329327
Si	12.36879665670446	3.9913932007907005	14.794451222563545	14	0.26368793364481075	-0.6254154555837839	1.0587240922988717
Si	11.05503847333991	5.3175219270495395	-0.0501839306067825	14	0.5581982778675566	0.4516724993537134	-0.5969533196897446
Si	12.487540812507694	6.629191153302653	1.3456637392462605	14	-1.1122177382582765	0.7804253384512554	-0.48902783143961287
Si	13.513365634020062	8.247333235771952	-0.0924363521810784	14	0.3511535941993322	-0.34193258207915306	2.149073808477693
Si	14.963183469244365	9.436569991321948	1.44921399605928	14	-1.3189088949449805	-0.5491395024930789	-0.9654467052786875
Si	13.885852798953135	5.296958755483834	2.5962472899672804	14	-0.9021401787544056	-0.031002645060877555	1.499057502969668
Si	15.069589722108176	6.595017120557742	4.2154175310148645	14	0.07618185063598758	1.0045210783816378	0.12727048467892596
Si	10.91995802012614	7.863944325913566	2.711417370712667	14	0.5475955537483299	0.9954836431813173	-0.14792314527354744
Si	12.261199045488029	9.316585517233797	4.057162709846093	14	0.4961814177718608	0.171008842832625	-0.5890230024402798
Si	11.19165300443239	5.449681104302783	5.343095331687208	14	-1.4730898534572365	-0.12764869427151973	1.1213618743293832
Si	12.22503397549628	6.894570306342292	6.862762670325181	14	1.6810223397925081	-0.6070634200296309	-1.3712902807428895
Si	13.754395380729514	8.25833290056186	5.551860483011422	14	-0.5182782682248095	-0.9863747312530968	-0.3158487186062508
Si	14.83800924233249	9.685123247628061	7.0445835389073475	14	1.7251144820382593	-1.5162939359254088	-0.26446080790404725
Si	13.632632029101156	5.538478101516281	8.140225223878515	14	0.27606549176653555	0.062037171827724946	0.20495848881145629
Si	14.84538587213225	7.030156678856486	9.703058902827038	14	-0.5194800028514467	-1.2273310085414144	-0.3322163750743135
Si	10.999844309661164	8.220731672556	8.11918877296725	14	-2.3834190026563133	1.5299609033651878	0.7508727967909413
Si	12.104625181994868	9.716000644931485	9.577166596908105	14	-0.8724110021585972	-1.1832792326491892	1.2965076256221264
Si	10.701107122748269	5.713999458809272	10.710458469817434	14	0.21970120671718538	-0.6286722746928155	1.557952784096172
Si	12.17569868371602	6.77931862570974	12.387107671384397	14	-0.12792534520396767	0.6204809902533557	-1.378819248451879
Si	13.455152274516195	8.38889272002666	11.004250703568102	14	0.12689613174431238	-0.37840268260332555	0.98653208289869
Si	15.0469212734536	9.58136083110841	12.466504361596428	14	-0.7792256607088743	-0.011915016274630227	-0.8717615409547279
Si	13.728756696182113	5.314812810795645	13.48609495172935	14	-0.7064726361278363	1.6281902392319771	1.1355913996132108
Si	14.805434567376022	6.798412999306467	15.142572661189	14	0.26641279106310367	-0.5611527349909388	-2.023181693360898
Si	10.79292331578689	8.308059871800516	13.654582398748675	14	-0.824329532898104	-0.7511008538328385	-0.5625233912371097
Si	12.243736669634613	9.502894379610066	14.909017464143906	14	0.6510074666089419	1.3702176156033234	-0.7905184694960287
Si	11.055968712053595	10.828223426974684	0.0078825491001873	14	-0.4435596336265182	-0.39285640827107	1.3390470773650403
Si	12.344920529719834	12.16902381294588	1.4214210744907105	14	0.3504056596617011	1.8344805605992704	-0.6955181848008133
Si	13.910903964312944	13.79222508841944	0.0898088358143493	14	-1.1812519161042525	0.172259171349813	0.6644042108795734
Si	15.25844450096401	15.098166002593535	1.5863507664296193	14	-26.02179210537378	-24.485267427236785	10.414009616717356
Si	13.629792353027796	10.795730351905382	2.6713518261144067	14	-0.3335224965769487	-0.12567845626469026	1.8079225853053325
Si	14.820497906546773	12.03418815939361	4.364239405227303	14	0.09183396849345304	0.35025113623196025	0.11362357186064397
Si	11.119959343568778	13.735660046636315	2.763461778746823	14	-1.2455046093863489	-1.158586594265019	-0.646827620689977
Si	12.389653587863961	14.80574464694725	4.290554707116857	14	0.04089317300642318	0.658477813116632	0.5901977404610556
Si	10.785905725490656	10.70632951552686	5.1876475466369305	14	0.3041684442473502	0.8900449279968329	0.7379308810514441
Si	11.835900433581443	12.009757153176258	6.944264637626082	14	0.9891127013085225	0.3700746153608339	-0.7220604763522981
Si	13.530012011001821	13.402324507565249	5.941402024362087	14	0.12213444469139816	0.5500977534458981	-1.4273581173488266
Si	15.078630989606115	15.148137773493689	6.813639538251549	14	-1.783763708385625	-1.806487137205094	0.39589159810150476
Si	13.439615655999882	10.98918736439735	8.299720363332202	14	0.5080956627148949	0.89034189066131	-0.014269120305757808
Si	14.957438837187913	12.380889759982386	9.531209540456496	14	0.2594489523034825	-1.3280008375780883	-0.04847176304809166
Si	10.710360549952837	13.341222512055722	8.46522125448127	14	0.1893027714065426	0.699627582434006	-0.212593643170168
Si	12.302521228348638	15.020042270621285	9.326149024009593	14	-0.44917029965614536	-0.9825576682948051	0.07796799750189445
Si	10.362891910424706	10.757084645343802	11.099510411845106	14	2.6555697294623917	-1.0591596375401047	1.2309421259635625
Si	12.234891241865872	11.938846851229439	12.230909167372197	14	-0.8679802163603861	1.9316215475840406	-0.9516059311192662
Si	13.575887467566266	13.673693092322834	10.742168185969948	14	-0.8271937442247489	-0.10902514999555914	1.9881084743571624
Si	14.718563327499629	14.955741559534871	12.475823068710728	14	1.1049409959811936	-1.2082192113651578	-1.0358265996492286
Si	13.728658776317516	11.125818215467262	13.709564402720789	14	0.1953412693614424	-1.683886036898089	0.47120570069194245
Si	15.126987082740389	12.302945547761901	15.2009492204672	14	-0.28268917329230103	-0.2555046196318434	-0.483337204034529
Si	10.964103559082675	13.279810436974966	13.847810931556578	14	0.7951384886458028	0.9209334159814958	-1.043048577382993
Si	12.434109206391724	15.164245591220157	15.06028733497131	14	-1.1104981830201617	-1.2037801980299219	0.15025410935679367
H	-0.37760021386286463	-0.6221289637339752	1.3283009152551852	1	25.363949355271224	22.085671801237694	-9.762492814144492
H	1.8901814182993852	0.2867191555311607	1.8825534608471544	1	-14.726552338139186	-0.30814131618804297	-16.76661796591643
H	10.352512404777253	12.607845158153534	15.741378745173334	1	1.5631171062422216	1.3825365525237492	1.4629406723164837
H	2.2285892063566606	13.951475428211632	14.143302074958031	1	-0.25317725509604533	0.13406257360316115	0.11318519840355874
H	3.4804669312881247	3.40434729254466	-0.8595911633765534	1	0.43844596225527566	0.5331230590117484	-0.6744094101223976
H	7.610713764075127	11.276503831102563	13.230174857609937	1	-0.4698000774134174	0.45565925526313505	-0.4953725480381423
