225
config_type=divacancy dft_energy=-23042.44491187028 dft_virial="-68.84414272758633 -5.192245199338541 9.733963136961338 -5.192245199338541 -49.78728582763127 32.215067831714606 9.733963136961338 32.215067831714606 -68.82418790360732" pbc="T T T" Lattice="16.3199774331 0.0 0.0 0.0 16.3199774331 0.0 0.0 0.0 16.3199774331" Properties=species:S:1:pos:R:3:Z:I:1:dft_force:R:3
Si	1.19672762519179	1.3577242025693215	1.6704312901649505	14	1.1692476824750133	0.31095950472945727	-1.4929187319072825
Si	2.9384119368296546	2.388069657830657	0.0586050389622621	14	-1.916060703965441	0.7644315206967423	-0.5895655056628312
Si	4.179660460458941	3.9786962583477483	1.1182774936708781	14	-0.03340380031936384	0.4684142516458576	0.9651883091940127
Si	2.6261291686472865	-0.0027254362313277	2.8839848120902665	14	-0.5372964771674129	-0.673982863749785	0.25890670619146333
Si	4.027313471120953	1.1724924587036365	4.2568539537175045	14	0.3050490478195008	0.8045978422291595	-0.8366515551449137
Si	-0.3423278466367056	2.580221072127976	2.834682160264871	14	1.2406804444741553	0.6919168375788819	0.601075058628474
Si	1.2810366286111845	4.09820745309034	3.9775538599274314	14	0.11345285046738615	-0.2798941246987681	0.13521828544456768
Si	0.08070228840667949	-0.0759531749736474	5.4135813142207665	14	6.5153657437277515	-14.773585567760657	14.954774702108407
Si	1.2505345907887206	1.2773156737564377	6.73709884409031	14	1.170916844048853	1.4366323513491326	1.6774880984194325
Si	2.6965498712711127	2.6235995721451557	5.394650140398371	14	-0.7770813588718709	1.057431340543901	0.3109929290986192
Si	4.113678791696919	4.049949279820662	6.717727030877221	14	-0.9016753229125226	-0.46724876960423445	0.6068001388448477
Si	2.7902428617145403	0.10727121166776629	8.23990764603989	14	-0.6851489170446561	-0.579976311260807	-0.6250812118921646
Si	3.988928884198302	1.5705693482518117	9.638513392079128	14	0.22655063129005987	-0.28249736883541804	-0.14010749932136127
Si	-0.1837792658741391	2.7691574508709746	8.086271378484687	14	0.7980638922790673	-0.6213803628943435	0.4884267070157622
Si	1.1244790850954562	4.253312518614522	9.44510533951946	14	0.7731671081324774	-0.7110831421879258	-0.9553034376801713
Si	-0.1174059176537214	0.0475727342174865	10.796007791521745	14	0.80161561716832	-0.3197022912600888	0.7074560839127929
Si	1.189579475076092	1.4237221913087776	12.342782612676098	14	-0.44665935820048863	-0.45981930367113466	-0.9030326094110288
Si	2.3687794445047325	2.8036578831645484	10.901026846303743	14	0.14945989492339992	-0.17047482425763025	-0.9231129419613854
Si	4.011385173146247	4.00281718499387	11.871249504701538	14	0.8712074677582359	1.1585917364756595	2.205158100157679
Si	2.561518377989644	-0.0395106653655351	13.541011675791733	14	1.1660042331136464	0.8737011828082475	-1.1833828481935913
Si	4.10747720027234	1.1138874197413742	14.768486138467482	14	-0.4411883031897456	0.5232559281246161	1.2540401648281767
Si	0.0582949593910332	2.9351316213656022	13.733750609276642	14	-0.42628540542257126	0.0664641009679559	-1.7432803695672339
Si	1.604596501199825	4.054894232982892	14.873276713565417	14	0.2234696757849264	-0.3857696706771458	2.2983028181433434
Si	0.14996427263275589	5.460550209273228	-0.0427909808295882	14	-0.09169281481137691	-0.5073747247831255	-0.18862811337053575
Si	1.5165665429256836	6.887242636474831	1.2170949570282987	14	-1.814285299641103	0.16758978697789206	-0.7403011830460885
Si	2.7754243222052852	8.29139717484132	0.0476053741723527	14	-0.25383288695268313	1.3225125561617002	-1.542169282756847
Si	4.253051398975592	9.629357884739159	1.2255650253160775	14	-1.5815380474189544	-1.3200666636706433	1.293203241064672
Si	2.705819618453114	5.484573216054751	2.3361394896385326	14	0.38135071196340736	-3.1508844276308303	1.4773841135629477
Si	4.010063254974166	6.582238578227624	3.804056179836145	14	1.0276366007624291	0.9811972964699146	0.9744897969107124
Si	0.13096781890062748	7.999824458021557	2.6497768159478485	14	-0.5237971457945073	0.771318226296759	-0.3039550425057778
Si	1.4781329960707332	9.446361977781807	3.831408462014021	14	0.3865939670427853	-0.2871001615795471	1.6447239891037213
Si	-0.17410151925631082	5.370268094113319	5.43292048747899	14	1.3110166300542538	1.1623110974317856	-0.596144192845494
Si	1.3223098515394944	7.1719120028403935	6.7146751950972305	14	0.22225945651073267	-1.577800431615055	-0.8395471339564644
Si	3.1559082760805786	8.183032524685537	5.268366155021043	14	-2.3044539305112655	0.5513218566888206	0.23062866143834673
Si	4.34742982847121	9.568272209207066	6.857246517952793	14	-0.7290022036061659	-0.7641643828539789	0.31579986760516804
Si	2.575129239168849	5.517147891011219	7.917832891397662	14	0.2859264520008995	0.2499314917398904	1.1776287144870998
Si	3.9090099547084116	6.890947271352144	9.581866750408837	14	0.07597539087877969	-1.7501364790139406	-1.1543427278235825
Si	-0.2574150040522863	8.174431896578294	8.134937551190191	14	1.5292389369912902	0.17929937193744247	0.9956294248529698
Si	1.3075402719625389	9.559834780874153	9.543743283125115	14	-0.7676217481779821	-0.6896246971859699	-0.05920844175449802
Si	-0.1433383617949173	5.5422480163033265	10.848035879578468	14	0.6528933723612704	-1.243872985950183	2.2124813794410567
Si	1.279992150055466	6.68329187849338	12.334508384117516	14	0.09075204737473472	0.6979501933231413	-0.8422812473539099
Si	2.546242879112262	8.114847658970046	10.927024570354671	14	0.08748622939708264	0.5674187757666718	0.6521971170405744
Si	4.165592639911609	9.428246802831067	12.134621300516907	14	-1.3490975280614992	0.7969004671217003	-0.009581223975531817
Si	2.746782761810195	5.565683503897258	13.668372779679645	14	1.5586804069017737	-0.6886276225428165	-1.2084768361182365
Si	4.099757850946484	6.954611503318667	15.022441307303952	14	-0.42008801315888633	-0.48088411244857576	-0.25661790823546754
Si	0.09175091312888821	8.208932328871866	13.594345362043102	14	-1.0717984199623565	-0.364555480680604	-0.4661545071799794
Si	1.3192906557143709	9.680912693450322	14.821232305531261	14	0.5122528829070424	-0.11749591358331901	1.4965020813919727
Si	-0.13669613097964559	11.00349998460618	-0.0714488612021118	14	1.4680617998931549	-0.8120689600684459	0.6678829163777338
Si	1.7106437145601088	12.178815799405742	1.1829535642382534	14	-2.35376567366745	0.8399600534708802	-0.9341391271268404
Si	2.921129080728002	13.839308223313934	0.0172175761919205	14	-1.1821602876138608	-0.38145381328674527	-0.41944832215523353
Si	4.058549907927906	15.171654860974785	1.4879249825305934	14	-0.49447446094981445	-0.7077378770558811	0.6787604916556841
Si	2.8002143679261646	10.860961301705483	2.586194183868491	14	0.5545578498447589	-0.5892536305874971	0.44874452461512876
Si	4.103364565959199	12.206200721538483	3.908699875137182	14	-0.005422204009660284	-0.21620887436082825	1.9304488664475212
Si	-0.0012892782172149	13.368721674030494	2.4466746967929187	14	0.8985277757795974	0.8760041218435042	1.1091252127792024
Si	1.3682179480588046	14.744789531234622	4.149631701982038	14	-0.802571554126351	0.2474285207107263	-1.5906053074409885
Si	0.0888785971006626	10.569372264908287	5.442549274164519	14	-1.2696210630682738	0.6331369990812525	-0.5073263880031068
Si	1.4526575112976643	12.00176036423404	6.685788835040644	14	-1.2514744588292008	-0.1340535747345406	1.5196250599781924
Si	2.6155701432480707	13.394605158239392	5.4198645055325105	14	2.46878998370651	0.5951915983243792	0.13657711460626595
Si	4.098370652864671	14.908658424640377	6.901963256119486	14	-0.5818141373436487	-0.06430771493594771	-0.19231970638920437
Si	2.742751727384219	10.777729416796673	8.24326956139111	14	0.9828672293753508	0.64889144693046	-0.6726137501668062
Si	4.044759526996938	12.347548046086562	9.597811368360976	14	-0.46516874540023473	-0.09818408441315478	0.1909055984631229
Si	0.0626523933656709	13.656067516695087	7.983112801130062	14	0.07907537256328223	-1.4139148360719003	0.5734043089519764
Si	1.3778304147669007	14.958173236172405	9.510303649364694	14	-0.5732572417276639	0.990006674628338	-0.4582642991735091
Si	0.1289604616763562	11.051741837898422	10.914213388069689	14	0.39301710235357923	-1.4453111173572923	1.8261584068990149
Si	1.397136948070258	12.349343243604203	12.547157690070808	14	0.2949361192637624	-0.2523154205927317	-1.7857025789075487
Si	2.6316616409971076	13.80807178650698	11.02830635030449	14	0.22205531074831295	-1.9311947441008963	-0.12080801145673377
Si	4.096738655121361	14.931604312911317	12.362007546092288	14	-0.7182603826891192	0.7535014948702607	-0.4091826699434783
Si	2.8990481512610176	10.920349699584534	13.650959363758528	14	-0.3242186948654609	-0.37087422911539997	-0.5513676223635191
Si	4.125510775335916	12.276833583868939	15.096223925278997	14	-1.2671157780443216	-0.2409146253821311	-0.04331438288640663
Si	-0.11822191652537639	13.65250976161467	13.647776968159071	14	1.1292741938416069	1.718509569581331	0.014428014614542961
Si	1.3961087894919726	15.151793448438703	14.985819277944076	14	-1.9745268676140115	-1.5617981292129857	1.3650262968514126
Si	5.3408431748014396	-0.1412820446383467	0.0048470332976307	14	-0.07519480330358272	0.3357878974745312	-1.818138358073877
Si	6.567811718176764	1.2156261590593196	1.2051650535247025	14	1.9831724663635417	0.7205962318724736	2.247984230143789
Si	8.015475316379899	2.7913363002025577	0.2144934634032333	14	0.7459326750288089	-0.4663339703313258	-0.14036075319539587
Si	9.433077516151265	4.404631349374226	1.370731224583502	14	-0.21409131201915427	-3.108661993173891	0.7875143900399677
Si	8.001179016148503	-0.2981333477478708	2.8363141580081814	14	-0.03653257838345204	1.6437017176284305	-1.0042328574752493
Si	9.546615599153341	1.1090240664663105	3.992878318737112	14	-0.4178141276137474	0.566226811340251	0.6292438314054843
Si	5.235171320922117	2.4432638215094014	2.6586059237391555	14	0.7378228946279978	1.5508490772071348	0.5579136565086161
Si	6.719212148823632	4.096134815956336	4.0895905050056625	14	1.2589280931523101	-2.6095497724475933	-1.390382794629245
Si	5.45108462236203	-0.054345524852223	5.5333536286022875	14	1.0937769995705784	-0.7939125856291563	0.8668052212290783
Si	6.949846069908202	1.2607019367295418	6.987757377485293	14	-1.1149335968079492	0.31664447570283666	-1.093212127731742
Si	8.160413035963261	2.5138314039301255	5.368603456415143	14	0.25103526725382996	1.004309219303258	0.644604385919645
Si	9.641663147723715	3.9552281307989503	6.914758118427037	14	-0.3475393914508	-0.9721860865438596	-1.043312887009904
Si	8.421924354351255	0.1372183702575048	8.355877405679498	14	-1.0815333960360332	-1.3463431029320247	-0.46840988076681334
Si	9.517680279164455	1.4605400603978516	9.773740725089795	14	1.8950676290264312	-0.19070222403229922	-0.848879732047538
Si	5.533402588534587	2.7417888487156663	8.196316986316079	14	-0.6036011696055195	-0.1946956648155532	-0.3551313512401333
Si	6.977851151183401	4.028733309157633	9.439442307350173	14	-0.07475334452011331	-0.9204405350916233	1.1863187933586683
Si	5.3341356640764355	0.0770955733939644	10.996139674783851	14	-1.1137141215546027	0.3093988438001274	-0.15812477696283095
Si	6.6733040523043226	1.1601055958319135	12.426373537088436	14	1.3351672794369371	0.6797531954197934	0.276679471716987
Si	8.145594496454006	2.5366304124041665	11.15565113421497	14	-0.9952489012655877	1.5952111855115019	-0.13029564719861217
Si	9.616073423108615	4.099219291691192	12.166314696691986	14	-0.21270831446744665	0.8048258992710567	0.08565611663020123
Si	8.125227164617497	-0.1198049543363871	13.799161078828508	14	-0.0851208125025464	0.6427120524040161	-0.34502819288461134
Si	9.373868638023978	1.3361655123801963	15.226620544969466	14	0.2304828797666943	0.7626258334304024	-0.8215419405099995
Si	5.321928320956477	2.613073186700807	13.545483349608402	14	0.06529296249462846	1.381109589071067	-0.515267503894916
Si	6.899678459278853	3.8740688830241443	14.859861692115409	14	-1.27983195073671	0.8658526267079636	0.23597990294117088
Si	5.498135117301657	5.4705543554397185	-0.1938160519954956	14	0.9957458959239723	-0.7444836000703735	0.8046952871207932
Si	6.860037234093853	6.7066947261324446	1.4807768324148953	14	-1.58927835998526	1.420383222836329	-1.859531611065069
Si	8.020028590083735	8.291576694593086	0.0838683640287009	14	0.5420525077886227	-0.8850639256601099	-1.4190963846235949
Si	9.49881438525179	9.539940728383202	1.2706244830088667	14	0.6795084261933153	0.16859303227381386	1.4028266872682298
Si	8.154782643748842	5.500550473961757	2.7881539046031034	14	0.10774911042516964	-0.18470254976773365	1.8157210048518737
Si	9.73560093782864	6.703414410668391	4.106791761220149	14	-0.10386288473376583	-0.6674831095004506	0.12415456214143851
Si	5.354454035980645	8.158601518468187	2.6143951048728877	14	0.7133194895953906	-0.4025492182174962	0.5502623041863874
Si	6.740101719938001	9.450017652726821	4.087305708165029	14	-0.14972240477658705	-0.07106740793314902	0.03439650408347302
Si	5.36179802582554	5.318762245334455	5.283968053447086	14	-0.018743357783879498	1.3333294533540951	1.1103979099126757
Si	6.913811559735917	6.542548393110326	6.8032437126266645	14	-0.5596131571252341	0.4074543729472747	-1.1167130588000236
Si	8.20336721656718	7.96019955281399	5.193930737948674	14	-0.9107127581128431	0.6632083897951725	1.9482249744099611
Si	9.29117531237046	9.34834419331861	6.8505390072277885	14	-0.08835886254274089	1.6769651355973143	-1.1893128455039808
Si	8.365506192365027	5.315792009441631	8.201931058553066	14	-0.7468533878439539	0.36028410341224204	-0.5351161798559272
Si	9.449968692794522	6.7555240986122795	9.589618739689561	14	1.740021750684478	0.4091248200737749	0.7527098515421873
Si	5.4124062758455835	7.813025996322294	8.139180745322797	14	0.7516348724078333	1.5877634647306291	-0.4844746610281626
Si	6.724140782008429	9.3093884071858	9.484208005449167	14	1.0215271403006934	0.10856620769591271	0.4820002292680521
Si	5.494512082311509	5.400655892093751	10.556397882848971	14	-0.5435463199796288	0.26923252226771005	1.757280809367036
Si	6.670839735711924	6.605347666272894	12.38160783898944	14	0.8045636465284015	0.10807126992178422	-1.1870227619953249
Si	8.261629536003348	8.086614098010783	11.102823367264024	14	-2.3734186885135973	-0.2638877085281862	-0.3006791972173772
Si	8.23411405405114	5.37553944682421	13.717854951256804	14	0.5127115680961568	0.4034725021379614	-0.8702582156740372
Si	9.642136427069275	6.964942049033819	14.950388606936814	14	-2.577381131124028	-1.5142655909383438	1.7462253136009311
Si	5.386718631365884	8.146655294987157	13.55426349746741	14	0.8691287291068962	-0.010394978809358683	0.25656442924480843
Si	6.84485965508107	9.640781868942328	14.716588610230225	14	-1.2516832325811968	-0.2411413968713682	1.1771314627181833
Si	5.427453295038902	10.938366954670675	-0.021101730820998303	14	2.740091731535876	0.46171909339219197	-0.45491980537306037
Si	6.850033087927363	12.26694367754448	1.420507155754457	14	-2.2913919441533173	-0.31270708501556194	0.6332642687945998
Si	8.046140553976695	13.448428443813755	0.01958397291972	14	0.14557958277423244	1.9657658262356077	-0.8658706244452046
Si	9.35766290043291	14.91161234055577	1.3637952341744346	14	1.203971745376273	-0.3673608136954176	0.19166304609043855
Si	8.027960099116221	10.801817703487929	2.6801156539959816	14	1.536387895333962	0.12049922170778397	0.8394131793692847
Si	9.59498801226505	12.2119779935498	4.069533252740383	14	0.25264426496317866	-0.05640156607649236	0.1804769381740703
Si	5.33989661611032	13.74868338862793	2.785363188462043	14	1.0238763592317126	-1.093141165224906	-0.8283782524457411
Si	6.792896846934079	14.709734219708324	4.262973945254918	14	-0.3378969751686487	1.0496174943654393	0.6033258042257317
Si	5.601179454814251	10.984829930422713	5.55248064215388	14	-0.2610942025978453	0.16441987122868154	-1.3615560760008087
Si	6.993518329519177	12.373970089550753	6.773606633608154	14	-1.1741962888847022	-0.8513747326502097	2.875929139141535
Si	8.368982347558278	13.598882315769504	5.582068761240091	14	0.6384113645350044	0.4539834088154625	-1.2779969528697204
Si	9.668117831142771	15.084897860940425	6.8361121471769275	14	-0.5491325605087145	-0.49436827430009245	0.7431941907523192
Si	8.211086565893035	10.871928326540527	8.391177516867295	14	-1.1955403196999115	-0.5760265792679954	-1.6215974109700535
Si	9.517304919683495	12.355267395412417	9.550075434369157	14	-0.40770916948450137	0.22444438181179452	1.1457979164026024
Si	5.492570004996971	13.82181320750565	8.468077250532062	14	0.5124948239176684	-0.8311339631278758	-1.4910814200455047
Si	6.844565895487274	15.253515867779214	9.796800853202765	14	0.41960335980603847	-0.9082082444204869	-1.468999482003413
Si	5.399790933289797	10.784763327070339	10.710344229975403	14	0.5868321635969816	0.534330707180622	1.1899173123647475
Si	6.909339885919247	12.0628297197887	12.59349010600338	14	0.4323676121679136	-1.0424058010529558	-1.9077578335550862
Si	8.002908933756412	13.699282816937936	11.0556749524598	14	1.5221923086403606	-0.31149789418349627	0.3719047281277153
Si	9.619810697940796	15.146717935457007	12.288078048320346	14	-0.5415012628079829	-0.7188586788971175	-0.5635937423818873
Si	9.053703320741421	9.659076563644835	12.609140964361721	14	1.9144473353770481	0.12530513177220476	-1.770098026498506
Si	9.515738201849915	12.330803749240202	15.010609323664953	14	0.004086000574779328	-0.48029224400387777	-1.023570654809147
Si	5.325012796691333	13.406959381156248	13.615724532480463	14	-50.52860719496713	-7.738063620482259	49.86398109769842
Si	6.573295230594286	14.853774340532864	14.954713400956587	14	1.4653132883059166	-0.8825393573462567	0.5805236995834664
Si	10.86737505283669	0.0587845587140262	0.1569818629289889	14	-0.37120384481744295	-0.7504097407227828	-0.8892216600733215
Si	12.026746249684114	1.855124474775343	0.9806511239775458	14	0.6669984561476029	-0.2253003027728718	2.662957800599837
Si	13.557201093405368	3.3004869561604115	-0.030224598206101197	14	-0.151840481339325	-1.0315842758709846	-0.5473405001005712
Si	15.077211151569434	4.173148789463134	1.489344820567273	14	-0.07834132199437994	0.3252710482729975	-1.1905608600263806
Si	14.87360311311408	-1.0907130517863723	1.946010429100277	14	-0.2158100959256733	-0.1411945626507199	-1.6793086980966292
Si	14.72873067344045	0.8380961210994173	3.8468798006206	14	-1.2338600733913985	1.3395255600651201	-1.3705670288163316
Si	10.701629362026129	2.8753352240507235	2.954258634917195	14	-0.42399609324551146	-0.4875954686657583	-2.8817213252067644
Si	12.24350818995055	4.13974179565758	3.9689205918653214	14	-0.02609980432588718	1.075139828436421	0.7427280493577763
Si	11.019640442287516	0.0436722596109756	5.543749454227172	14	-0.5934090510059206	-0.7205802910194887	-2.405182380749239
Si	12.19156170178099	1.3823673684933024	6.785944536547579	14	1.075693387411849	0.7298709800938438	1.2184740649345682
Si	13.47888152170392	2.7453955637283816	5.301756828849165	14	0.3076435501980623	-1.5052849771655987	-0.12897795572203627
Si	14.787188832605814	3.9620825213208524	6.694732182673983	14	1.1785509699654368	0.5086124548842448	-0.5546393538834077
Si	13.519191865963677	0.051261049117367105	8.213355042756238	14	1.2284694939771759	-0.14078061469417605	-0.45868313223016116
Si	14.878384866501978	1.509907992132979	9.642936105963498	14	-0.8748723212815751	0.039588337056448035	-0.20601829842442135
Si	10.980847855929035	2.6737508627970725	8.315452821577711	14	-1.2597356773333686	-0.6813609075764819	-0.3264504142833495
Si	12.513016297280764	3.7551288874917113	9.504167337849848	14	-0.17030847374341668	2.6729658280585133	0.6343922126985488
Si	11.073218928200381	-0.0357733905333552	10.688981379515475	14	-1.210661761419298	1.0329402768168308	2.3255495925525485
Si	12.07730553977186	1.3203840942023888	12.517749090736363	14	0.7530237835017772	-0.02911468242429282	-1.27076906159372
Si	13.531382889106204	2.8504635784426795	11.325280979654611	14	0.48374858088575284	-1.3935205715619539	-0.5770046277317797
Si	14.86738520171207	4.328237535009884	12.512640937799802	14	0.12139139525387534	0.35829021123646715	-0.5630995759393549
Si	13.65481087843274	-0.0187353340931988	13.600187913964152	14	-1.1605614602614247	1.0598026709806738	1.7469277395743956
Si	15.004538292059841	1.8125782936072514	15.08839033611111	14	-1.2404924966752524	-1.341539763972924	0.3813339997788264
Si	10.753869609789481	2.8275666501040395	13.699690816373764	14	-0.000208773751996024	-0.3394404096923336	1.2438243920596321
Si	12.129398907738315	4.502110574582132	14.936630865960712	14	-0.7870022258601943	-0.825576004757312	0.16565323045075656
Si	10.80903113351336	5.6886708538331	0.2161091411691102	14	0.056004073193997465	-0.10601515699726179	-2.3722701757670874
Si	12.27815550204102	6.927177621253626	1.2823259068283994	14	0.5858181196587153	1.3230440036313746	1.1310431143018689
Si	13.580195941608606	8.382968568218445	-0.052060728011589	14	-0.14468098146484068	-2.260283626663782	-0.881523256523734
Si	14.97762664927266	9.341930442187401	1.3356595930797701	14	1.1930826001243817	2.009653308497875	0.8441977492595484
Si	13.545401749721236	5.4843284163932555	2.5481359964945014	14	0.18783801270565426	0.4414942647228432	0.7518133071170516
Si	14.951710525108895	6.800550916350203	3.9002134868719702	14	-0.9673284972625038	-0.5871293833719908	1.8167522751957854
Si	10.995078876250698	8.21190256476469	2.886367528795499	14	-0.5635400062806962	0.2531641424589126	-1.5556750418930527
Si	12.302668108145538	9.53839033052706	4.253443078433987	14	-1.0155187242780392	1.1935587688296734	-0.5033918255316842
Si	10.98171281473299	5.3558901939947585	5.700649717268995	14	-0.07302093375539755	0.16345236429670978	-1.6254011041806806
Si	12.147269283027558	6.830139035436414	7.024281486980572	14	-0.6485926844922587	-0.03684059680080577	0.3998241036886713
Si	13.318766223107776	8.000069257683053	5.486906972827685	14	2.3137916708129795	-0.24912956399053623	-0.4527963294891501
Si	14.652434778940709	9.37798127233712	6.85507596095419	14	0.3762627516453663	1.1559208722690895	-0.5626753435615304
Si	13.592860244096691	5.315645129644733	8.02074666909079	14	-0.004284232794962744	0.8230105558688682	2.207015723751486
Si	14.901216514930885	6.814635056874968	9.657428245924091	14	-0.8030400095156819	-0.3507293618215077	-2.962516767229226
Si	10.653795508169711	8.325048968308373	8.258512420313624	14	0.3985609196448825	-2.294478556090155	-0.1779662538289457
Si	11.88047029195124	9.570410126250803	9.628068606521945	14	1.8997246720928158	0.8759043629570824	0.5282215038294181
Si	11.186120532082567	5.497368078362302	10.81014089197881	14	-0.9112382920402815	-0.41236955498780176	0.02594193845923009
Si	12.313504573161115	7.184331505666983	12.226274293781197	14	-1.5461028167861415	-0.26774050985042813	-0.7554570775767654
Si	13.620000366567936	8.298626924844186	10.678977233348984	14	-1.464590293489891	0.8510669713433879	0.7696608918073915
Si	14.912803698908386	9.444354620557537	12.198187612618831	14	0.953474353355418	1.6772965510730815	0.2048682430147191
Si	13.427032953398962	5.9375668296653075	13.713791276875963	14	0.4437658362731941	-1.773588044860075	-0.7845123674681628
Si	15.033114572545198	6.821440487464571	14.93109839361089	14	0.5801444615487445	1.5279459281257879	1.5143159846026188
Si	10.691576255927338	8.362242196878409	13.669727337806592	14	1.447630511466598	0.8191076179928832	-1.288511745186998
Si	12.11753428414445	9.610508310803928	15.0190630719753	14	0.6450620426666314	0.5415313447402287	-0.7448967766953212
Si	10.875241281959445	11.001443667449607	0.012207343119958799	14	-0.6429259683666524	-0.5838604800679547	0.3088283155295865
Si	12.262553603614977	12.122413957396947	1.4487570366911533	14	0.3635218963419045	1.163532372458856	-0.31104563675768215
Si	13.541240155475794	13.773620314145706	0.1795360717415331	14	0.39516731773281905	-0.507974306543784	1.7081485293621985
Si	16.24195162099235	16.56461389482217	0.0643986309510126	14	0.015868604925421928	-1.1839508053588117	0.46804349825869235
Si	13.62897635415614	10.772147984514552	2.703714341364244	14	0.5875585008499236	-0.3753446099355414	0.7596556925645672
Si	14.999217979416649	12.202757206300099	4.003894303504454	14	0.09340028585448724	-0.8335585154447755	0.655248247723994
Si	11.0672621364373	13.690323149327163	2.7208176777141326	14	-1.1753692271317537	-0.13048076678166287	0.20614942479574888
Si	12.621805266849806	15.195645227801442	3.985452729005052	14	-1.3063035368918907	0.5944002121068376	-1.823955998081776
Si	10.876514240199228	10.88021887507654	5.685570058120811	14	-1.3658554783171606	-1.3522677009212418	-1.6456742696300481
Si	12.186110829318338	12.12974162726441	6.958201898353949	14	1.7497901511273166	0.8568180197234951	-0.6591146759044326
Si	13.507441482211846	13.606813824801993	5.37253657097652	14	0.6799611978401934	-1.8370010151446114	0.39129009091003575
Si	14.907875065723589	14.908919544279307	6.647746967644087	14	-0.13745926084160875	1.0290314253986095	1.3129503583655375
Si	13.529000172400972	10.910525073169808	8.400610463823627	14	-0.36015477681463853	-0.9096231236781644	-0.662572812560032
Si	15.08297210360332	12.146649123885101	9.574522760563942	14	-0.8596511206757663	2.458937765230235	-0.5970188828754084
Si	10.922911936041531	13.565361082121916	8.087152657266074	14	-0.19099610137039214	1.169576783955992	1.5605033205737588
Si	12.408552121731491	14.851554823601962	9.593845613844733	14	-0.9056191413630978	-0.11662559443244888	-1.8197059609875714
Si	10.687235141930133	10.951194456933093	11.078555560821005	14	-0.27047847990585383	0.6072318274281006	0.800193795926278
Si	12.19019082367661	12.366479219908957	12.393635662357635	14	0.04323853527946226	-0.7690212008037386	-0.5634371620678904
Si	13.63465570630286	13.669711017829158	11.031847785407473	14	0.023300127742777933	-2.4217744947117508	-0.7723813783466402
Si	14.855618497982803	15.036672327625615	12.24146819277141	14	2.144338346699044	0.22068671138639814	-0.012939858855241255
Si	13.586218013281417	10.906722518427896	13.63844194106734	14	0.18678745907184174	0.47732030336431863	0.3427879888191664
Si	14.958434355811335	12.586733635346077	15.130593797753106	14	-1.273981143470181	-1.7640746980649953	-0.1479593978585615
Si	10.86647745407787	13.766912803420702	13.69324442528769	14	-0.20333689268603888	-0.47915478701024417	-0.418935900864928
Si	12.287653728907085	14.938475023410652	15.06887164310112	14	-0.4276023255675512	1.800614989764408	-0.19484247492933365
H	5.8774375048107945	13.520283672453951	13.070402278539888	1	50.865614310584476	9.095283527360637	-50.4081300847651
H	6.013720740361382	10.959999084758252	13.77589042300665	1	1.1415617632771267	0.004006553420386752	-0.09086414756669318
H	16.07013816257216	0.5920904132706114	4.665225485030479	1	-6.021199301195289	13.329793716537038	-14.454745625224945
H	13.988975472357406	-0.35617697948643423	4.592572209493805	1	0.41646866819971395	0.28564414463674725	0.38378014938041527
H	10.29140224927901	13.22477784107281	15.944870911788914	1	0.5567368616035844	0.4640587992335268	0.5550463598555871
H	15.726010222424582	-1.9650688987466511	0.7455798010289169	1	0.36010001227131944	0.12388536741441898	0.268693104371543
H	15.94344944175449	2.6657801858187464	16.002713807805048	1	0.4168083112125055	0.09690033152680483	0.532351984526236
H	12.575428786978168	3.686398934529954	6.206174074241214	1	-0.3892247220063608	0.27239755291681234	0.43794999603901913
H	13.112799947913336	1.0069964635477993	1.8989746221403396	1	-0.39160607975388195	0.481859846917572	-0.22254330653807702
H	8.078370877409323	10.492010675882161	13.442995523326276	1	-0.4128508659037336	0.2701588915145594	0.2849592021794598
H	11.721884175240577	14.333800275541378	4.786442117414829	1	-1.3436436994564012	-1.3470740681745428	1.1495463308488463
