225
config_type=divacancy dft_energy=-23023.128639149425 dft_virial="-91.24647251271384 2.5608897725934368 -22.51613084672537 2.5608897725934363 -122.80451417190372 58.50254189729221 -22.51613084672537 58.50254189729221 -114.2590219922804" pbc="T T T" Lattice="16.249967316 0.0 0.0 0.0 16.249967316 0.0 0.0 0.0 16.249967316" Properties=species:S:1:pos:R:3:Z:I:1:dft_force:R:3
Si	1.268131199373324	1.3821734699970118	1.772660184600492	14	0.4127472503593315	-0.09102458453867043	-1.0104634169975641
Si	2.5854510498121797	2.546012379136248	0.178034641914096	14	0.6195523070117182	-0.1473359048184256	0.435726247047623
Si	3.9906832234305956	3.9600682850072517	1.3893884554853158	14	0.026898132527793155	1.001897779623491	-0.5788792206206997
Si	2.8811192051268	0.032564934501264	2.9190303788750276	14	-0.5253956019720434	1.0443942939075583	-0.08876792539917647
Si	4.2390639738556555	1.573858084456548	4.147982907049476	14	-1.0964694610618375	-1.714485275534235	0.6510347203253354
Si	-0.06532486861032	2.961540293373684	2.890885435483716	14	-1.963553647218152	-1.674540583280415	-0.5925749844400645
Si	1.399560935025132	3.93232959079884	4.20760403713188	14	0.6098404708859229	1.9547147013485466	-0.17051724749541272
Si	0.026341197019236	-0.00926248137012	5.540491356259463	14	0.18332418020560226	0.3798245038453674	1.1001032042108028
Si	1.269983695647348	1.496508240032388	7.053802062496596	14	0.17873578565126602	-0.3599205491199731	-1.202355034350964
Si	2.723153272847964	2.602806014905668	5.515677656167932	14	-0.2972573131467921	0.6709823838411721	0.7002402768317972
Si	3.8722047117296396	4.284320132830716	6.740112693428532	14	1.8696082870357933	-1.5200048122339784	0.023985584421129413
Si	2.754401959996632	0.147094704144432	8.248223410124544	14	0.36389290683960185	0.2282496176856137	-1.3408159978253023
Si	4.142750417573724	1.318668597726084	9.591283208791944	14	-0.2289217046163004	1.5071585416123905	0.44835860170657454
Si	-0.09792230304621599	3.037882639824252	8.201488504123729	14	1.306046426359876	-0.4783891118459041	0.5316184481783979
Si	1.4813795204611921	4.22361025493814	9.773640342012095	14	-1.678953114230853	-0.09412585177583303	-1.1591519803249197
Si	-0.089748569486268	0.11464351941437999	10.635912357701002	14	1.6979548680994072	1.1685282872064358	0.5918311636709456
Si	1.292798649759012	1.2462099934640398	12.249192862866167	14	0.8884824672937788	0.9647951871905619	0.1762716383124361
Si	2.8601892472237918	2.868379230751056	10.917686790960444	14	-0.2566647023522942	-2.062921725631235	1.0027459872686078
Si	4.183765335079308	4.262090177542428	12.256196598779365	14	1.1095000799348802	-1.5413681263390888	-0.25895195764509793
Si	2.684234601126144	-0.39042171473421594	13.631171333255388	14	0.9051146904992847	2.3586037225483727	-1.4095046191162504
Si	3.90072340436922	1.2789861775404119	14.990887348421687	14	-0.1636379981008245	-0.13137036922243409	-1.2190492211946853
Si	0.06262737403586399	2.906192904695388	13.688907467129136	14	0.061704727909829796	-1.522916589009046	-0.19550761987565599
Si	1.612500506733996	4.0589168361904795	15.054408470659931	14	-0.5780526102602721	0.6670748179756112	-1.532428907361998
Si	0.19499960779199998	5.4114341158357915	-0.018459962870976	14	-2.1392228755540774	-0.01943087134648709	0.8525960076772799
Si	1.048821640476588	6.997430925877391	1.4300946236118959	14	1.6198128067673387	-0.7011741022840751	0.11289800593929819
Si	2.60584475879376	8.147473612765344	-0.10716853444902	14	-0.9731443374966788	0.10053278912311003	0.727251023772613
Si	3.98270448947844	9.291422561909796	1.321512342006384	14	-0.013038332189002922	1.2080317777873189	0.4773498710755003
Si	2.629797210617544	5.407534123679952	2.621899726501968	14	-0.9379225086054382	-0.0826186128049783	0.5103998873028117
Si	3.9323945906681037	6.50713691201904	4.190216572103759	14	2.488960819164136	-0.06970292233974643	-1.882797285996557
Si	-0.256391984311848	8.31973951628226	2.9072654025382443	14	2.5361984516585565	0.08658865652981895	0.047578818170404234
Si	1.536808158976068	9.603860683494528	4.1360229311048995	14	-1.6474557885063787	-0.5178121268302666	-0.6086888728130285
Si	0.17260715283055197	5.550403836322223	5.444827798670172	14	-0.9613185385766577	-0.9970134508468055	-1.2484829777892086
Si	1.344424795921944	6.7490176755177	6.888897394173828	14	1.9230852208106173	0.1129172892291993	-0.033920078267649575
Si	2.72121952673736	7.955447748992171	5.263006914371448	14	-1.6174486754254627	1.0049334836749897	1.5194466252689742
Si	3.980120744675196	9.396316100934575	6.5036431690461	14	1.4450920591840157	0.7774510838169082	0.7119904852554061
Si	2.782660653159156	5.451555285138995	8.332251991115578	14	-0.43205856530843173	1.06741160006512	-0.2354188877603146
Si	4.417764864429708	6.822483777753336	9.333721226833344	14	-1.7818284374111495	0.61496622645217	0.17123175766388185
Si	-0.025171199372484	8.211790983402071	7.836075489088836	14	-0.8672219974014744	-0.0710584090645285	1.431339473937076
Si	1.21208506210044	9.325986242390927	9.36030617336232	14	1.6494000583494748	1.7812285985399592	0.172171753768928
Si	-0.07218235481767199	5.622602441107212	10.871553133750318	14	-0.3713853648530454	0.3604694801058247	-0.534833615381243
Si	1.5190794446343119	6.953442264352979	11.942523479678615	14	-1.3469822797146136	-1.4496382876111018	1.4599707885611808
Si	2.794864378613472	8.188846029551879	10.633751112047976	14	0.45959304640296156	-0.5179113714956244	-1.9497049026322382
Si	3.8058885951130437	9.454848483206806	12.120233122246391	14	0.4505340139179518	1.0154469904396073	1.9120119844178034
Si	2.682203355211644	5.48265772258182	13.32643569617844	14	0.09375586972026373	0.6912892307702337	2.251154403003532
Si	4.109080485294972	6.877684916725787	14.953561173496835	14	-0.7296961449320738	-1.4472358467999553	-1.0757782338874138
Si	0.146542205255688	7.85255295594726	13.622168851362323	14	-1.058314515221372	0.9964002422279502	-1.4354858954868785
Si	1.18917260818488	9.462892217028227	14.777704027203082	14	0.26252785092435993	1.4535108864443087	1.3949583336569806
Si	-0.224298298862748	10.98367790823072	0.013958721924443999	14	2.250060140579277	-1.4227915771897115	0.5614126737388058
Si	1.401185931756732	12.162515537202625	1.387925958426876	14	0.5223748103314013	-0.021455102565039675	-1.0700243572914545
Si	2.812024344099168	13.5081915806079	-0.021059957641536	14	-0.3122771962060331	-0.2032816139216557	0.19521245698490297
Si	4.067431819064065	15.00733231534548	1.423123387633332	14	-0.22990129574327683	-2.478935822410347	0.6092228913880233
Si	2.8425255327512997	10.889688097274975	2.71236329455014	14	0.10791880337629942	-0.5490898801604001	0.11026185165455037
Si	4.264348922999352	12.11816937639726	4.201201550009376	14	-1.519650771031394	0.88062182699849	-1.2587478586693677
Si	0.259983227088684	13.685332474319615	2.628805962611268	14	-1.4994727364788718	-0.9288984431527826	-0.17589291449877828
Si	1.32632233233192	14.998524833060207	4.047931858284864	14	1.4574246229626382	0.26148552482757187	1.3230357760943503
Si	0.11945350973991599	11.06650399164037	5.384410420189284	14	1.3372280203510356	-0.49800021767533353	0.5463066586513398
Si	1.650476680351488	12.280392800112887	6.75161767028826	14	-1.262209594872415	0.34510172649676757	0.15250974005415957
Si	2.8591817492501996	13.660941273378299	5.3319392757259205	14	-0.10156585924074552	0.009473237552085597	0.3900719012093496
Si	4.134007935157715	15.026231027333987	6.828837514973892	14	-2.0352010965115266	-1.2781193374829594	0.7599698816346894
Si	2.899367918422668	10.811477004583068	8.083253741932511	14	-1.097242849542138	-0.6822582233332136	0.09117422286830304
Si	4.090783022097155	12.267392826260087	9.481774679049419	14	-0.037165584513272495	0.02878223850639767	0.512333101393031
Si	-0.0211249575108	13.675614993864649	7.934176541775528	14	1.436031998256878	0.3927841602115738	-0.17148732553270454
Si	1.363079758400712	15.127858322928251	9.396511100542368	14	-1.4711121592449785	-1.347616828507626	-0.4630748372275061
Si	-0.006532486861032	10.869424388031923	10.70239097399076	14	0.9055926589783002	-1.2767314548311433	1.1751761371222105
Si	1.273298688979812	12.388357582960392	12.05386825572785	14	-0.03247743107251449	-0.6699246311124633	0.9024474258401631
Si	2.576578567657644	13.768776056487276	10.695744737358517	14	1.8393787733446842	-1.1010899944326755	0.9921836295029074
Si	4.312643825862504	14.841322649245223	12.149629313121036	14	-1.6449211928817766	-1.3140361361422361	0.8536607023903533
Si	2.5410886390394998	10.970255435227703	13.590562664932703	14	-0.2897453147329154	-0.7122707357353021	-1.514719133916818
Si	4.137891677346239	12.027137059493029	14.817402697356073	14	0.04516120783786899	1.787096889322665	0.2954385132433193
Si	-0.145225957903092	13.68291122918953	13.5532852399098	14	-0.6481142017921792	-1.698802818633992	-1.149871318561313
Si	1.256674972415544	14.706041671339523	14.893208794885211	14	0.8776750831910685	0.5840898226625117	2.061010623046769
Si	5.250169440191808	0.051869895672672	0.087928573146876	14	2.333447770985512	0.6110625172445893	-0.42319236572243313
Si	6.8317137591888235	1.3623322599041758	1.4684445464776559	14	-0.44436027582321225	0.025479139501603434	-0.3951752881593116
Si	8.238619679440788	2.803411861421688	0.128927240685144	14	1.4510878767906015	-1.6253049448417072	1.282610544256194
Si	9.710720468564544	4.0771167995844	1.596689288535528	14	-0.4874445447834656	-0.9008052608721845	-0.043354235018868925
Si	8.164682328152987	-0.26550821597612395	2.629374711467328	14	0.6103019842908894	2.0266264602688326	0.02688116323268018
Si	9.353854936337868	1.4289083759978278	4.111339230751896	14	-0.9281268544462061	-1.3128881376167898	0.9149106017690488
Si	5.408005372732116	2.911652893713564	2.828274311415168	14	1.6602874038276418	-0.6350571005343392	-0.8112408070448262
Si	6.847346227746815	4.1523866481921115	4.13163543992958	14	0.7281516819662608	0.7703422347172307	-0.5497938487970566
Si	5.303274333380496	0.084353580337356	5.588233760233871	14	2.7060047885329483	1.3066007566668998	-1.8420213553927327
Si	6.7308177121237796	1.405979672114952	6.993108434571336	14	-0.4062369545781846	1.1420099069344283	-2.0448527687728304
Si	8.159953587664033	2.950002816579324	5.645206145643767	14	-0.5167525743278336	-1.4724344787111305	-0.39978219467195286
Si	9.398607346326132	4.337002526869187	7.089145741408895	14	0.944550303899716	-0.8206919330911585	-1.0044840544650278
Si	8.317838270106288	0.251403244345836	7.982601444377208	14	0.14853789655559482	-1.4302452115128208	1.7854650087759671
Si	9.48729966793686	1.411212161590704	9.630396880121555	14	0.5455875204932943	0.2324410335785191	-0.6897465675781449
Si	5.3352542690583835	2.770505677606788	8.195979765203603	14	-0.25743217729035844	0.8709056199936507	-0.10903954818535197
Si	6.807208808476296	4.127036699179151	9.502233387900263	14	-0.27687179039493404	0.7519830000681813	-0.31611354245422607
Si	5.484818968234848	-0.033166183291955996	10.838224450785203	14	1.3883804178059138	0.2762570391128866	-0.5248680111603491
Si	6.926759818020108	1.233551268924876	12.1842254935368	14	-0.3293691330427815	0.6659720709037996	0.609460975740669
Si	8.149748608189583	2.844036779711688	10.84465943784234	14	-0.3552961590911548	-0.994627207999176	0.8174289433293586
Si	9.49106966035417	4.019169416135544	12.307383995824765	14	-0.12347321923159928	0.3449572303777753	0.03576021834527955
Si	8.339466976603884	-0.095582307752712	13.645048805343253	14	-0.4348351019436597	0.3094834331651602	-0.25676368990711995
Si	9.712377965230777	1.402225929664956	14.9975010851193	14	-0.5114931212849387	-0.04155163307891311	-1.0929948693321894
Si	5.434850318738148	2.587921044844212	13.604342637216671	14	0.0003877226822783303	0.06843022520627315	-0.26234504533609737
Si	6.889921142114735	3.870953464246308	15.013669802598718	14	-3.150149091509268	-0.021394167368952166	0.19424674982665535
Si	5.356931725457928	5.358881721535848	0.001072497842856	14	0.5390679687329949	-0.34527861854279385	-0.26009687084415994
Si	6.724447724935907	6.911891097925968	1.1386839597340679	14	0.9747672191747563	-1.9899285598132948	0.5224575999227101
Si	8.226285954247944	8.229665947449671	0.048116153222676	14	-0.2596281583442969	-0.7957974629393568	-1.0646234934559515
Si	9.60678567761141	9.422689797888443	1.389664704929688	14	0.06419741451771337	0.19298305156180257	0.91607582670014
Si	8.274174607928195	5.541693853840847	2.5609460990996515	14	-2.192309515541303	-0.25150320842209695	0.5841965235332979
Si	9.272897599169555	6.835418751736872	4.12594795136898	14	1.8239097181860136	0.24567862642983349	-0.9691310992024598
Si	5.409029120673024	7.988678932153392	2.557761105505716	14	-1.2704988384245723	-0.21769497323587383	1.8999537575768408
Si	6.743638936336104	9.292202560340964	3.949343306578692	14	0.523271868977601	0.6904572210886338	-1.1410184887229793
Si	5.636041164077543	5.5071626732943475	5.546308844558592	14	-3.0166521610765398	-1.7402199829046612	-1.4393045011083627
Si	6.948859773569867	6.769638884041704	6.662194100148312	14	0.03998428727575083	1.3471684277397922	2.071988471432205
Si	8.07114751628209	8.195736015693862	5.428789080929279	14	1.233681895792712	1.309036621847208	0.22117393584456618
Si	9.614065662968976	9.39868859616271	6.8830636559073834	14	-0.621858074262827	-0.2704103456148699	-0.3345717646581012
Si	8.271818362667377	5.859315714999384	8.301978302005871	14	0.7666028191396073	0.9792717956956558	2.5825184566642165
Si	8.21370847954536	7.809181793180856	10.395867840509052	14	-0.5356239731566566	0.05176226363681717	-0.4486290819862541
Si	5.528937629497788	8.187773531709023	7.8428517254596075	14	-0.5745571925775308	0.0850945872282809	-0.02462013321414196
Si	6.593619238074792	9.50395588443576	9.401824839854699	14	0.030475825580779204	-0.8122260546035069	0.8103146949085089
Si	5.52685763368134	5.5759650349102925	10.8496969277103	14	0.4254359122247943	-1.046278142775631	0.31905231583515536
Si	6.922924825733531	6.823572525563508	12.178895504257152	14	-0.1206090079049543	-0.4086756479743451	0.8142184041160897
Si	9.37289989803222	9.140005366459308	11.832852450262932	14	0.4357241901633669	1.0543488423755756	1.6140687003715959
Si	8.050136308542504	5.240825708985108	13.821767199904752	14	0.6028848596633262	1.1423238388940185	-3.037840125798816
Si	9.375922391952995	6.571356782851871	15.005122319790503	14	0.5948457846588192	1.1019490007201371	1.0754511892906913
Si	5.284798120542203	8.131694894501507	13.416606764814924	14	1.4572672713170451	0.5528717189758059	0.4621651801652377
Si	6.912281097141551	9.4684497058503	14.878470074529599	14	-1.3772308195850915	0.6560321777361073	-0.3863664242219522
Si	5.243555703494196	10.857464412087348	0.154244689763472	14	1.1833509664876214	-1.5838173322852656	-1.0657915466028949
Si	6.9245985723670795	11.9392572362481	1.2280750299393839	14	-1.119887088317746	0.7261966134808202	1.6404194445767295
Si	8.104021200162359	13.429590488700407	0.051138647143451996	14	-0.4715877669425164	1.3761167596498713	-0.900933301917128
Si	9.61705565695512	14.711859159638651	1.224467537195232	14	0.08529873299070066	-0.4223642126988134	0.9711833554690019
Si	8.235012186696634	10.76137835534784	2.705587058179368	14	0.13594513691857357	-0.07939650361776872	1.0024456821672145
Si	9.653341833971748	12.30577524906048	4.085940531836989	14	-1.2695166761922758	-1.01302783744388	0.12093348139635697
Si	5.48940145901796	13.350891896989019	2.739126990719592	14	0.502764218723036	1.270595254874078	-1.1670871826744926
Si	6.694742784682259	14.9719073865966	4.007095690419756	14	-0.4510976002041283	-0.9651867665308204	1.381905346167653
Si	5.614461207481895	10.73261591319852	5.246578197414972	14	-0.12374189973755473	-0.21615359559644504	2.2808568401040104
Si	6.992263436270904	12.11540688195354	6.744126435355584	14	-1.3174760179500622	-0.09526922231170289	0.4059073388761416
Si	8.1546398483517	13.646933801551908	5.433192822071916	14	-0.21260701291783277	-0.30770577094680984	-0.9191758083846426
Si	9.446073500856167	14.84507639169522	6.874841172445488	14	1.8571569381913804	0.4361059993034089	-0.3489869237460434
Si	8.143898619955825	10.632174865218325	8.24255217153126	14	0.6944393490084793	1.5507125515146352	-0.8162752883722081
Si	9.323808746770585	12.123775615121279	9.649116842469589	14	0.727874516812749	0.2531646566799766	-1.6707859981814024
Si	5.45568277683726	13.690857463207056	8.161432334689788	14	0.5712132129981462	-1.6284797456910258	-0.8733875079591895
Si	6.911436098841119	15.008648562698074	9.294640055438364	14	0.15493480659212325	0.08090779932495176	1.3787454577291907
Si	5.282263125640908	10.738482151399594	10.984636656302364	14	0.5315749964984873	1.0156452226597907	-1.2553575991942203
Si	6.825782521118484	12.00328210747314	12.225809159898443	14	0.3378234415564924	-1.7355734813700898	1.283581650735614
Si	7.8804216498942	13.353849391040532	10.87832937012109	14	1.3625917172237647	2.6824501213634755	-1.3824527344903124
Si	9.578429484644989	14.839323903265354	11.97508841417988	14	-1.3902730084320747	-0.00935625226001886	1.3048300364329137
Si	8.478209197547892	10.6949159890254	13.573955198335751	14	-1.5086387269451997	-0.06474634550356498	-1.0807242691917827
Si	9.519133353908904	12.176490509094384	15.048899731739807	14	0.6591828101954166	0.6340497414699051	-1.6106072212790807
Si	5.7028610296809354	13.401039296126195	13.573890198466488	14	-1.9970698048400062	0.3974561156888149	0.04248828674704305
Si	6.714600244742412	14.90105752909884	14.986223607801996	14	0.849820756594712	0.3346764086446312	0.2492419212930267
Si	10.962049201733123	-0.17928588939742798	-0.082614833834544	14	1.335338515051259	0.973930324393048	0.8465297417849226
Si	12.217261677090226	1.362949758662184	1.5127094574464401	14	-0.08334032206834387	-1.1862712279102456	-0.6690419706560564
Si	13.709902424901408	2.555486110081476	0.176409645182496	14	-2.8417357523783533	0.3441892412186471	-0.8004403649264802
Si	14.686525460593009	4.102174249185672	1.342393550007444	14	2.737525768426368	1.7560741896402905	1.3055738572020326
Si	13.732587379274543	-0.0023724952281359997	2.684380850831988	14	-1.0370316767127823	-0.3849906257651409	0.46793319784045795
Si	14.840818900258427	1.285989913453608	4.337473775921351	14	0.2829902497252904	1.3674925010744985	-1.3804169332978191
Si	10.920904284489012	2.568486083934276	3.0373463909028238	14	0.2872906804837701	0.42104292167478935	-1.57392680433972
Si	12.0769757092512	4.15731038828886	4.157700387504444	14	-10.916850711489463	11.021043211925273	-11.429315453474887
Si	10.812045753439127	-0.054778639822236	5.260813168783788	14	-0.3611883611533381	-0.15399223938175696	0.7518559874653661
Si	12.103398156107016	1.332286070336892	6.776951369333904	14	-0.8594102081072684	-0.211742093088135	0.5749603418917301
Si	13.653271288805149	2.7201632788618197	5.836192011508715	14	9.29156530704819	-11.692649860138177	9.370205905701836
Si	14.938318704154426	4.300911349460352	6.724431474968592	14	-0.29706062358980073	1.2345869248654042	1.3933105122572977
Si	13.49652410407501	0.10945977984057599	8.3167332723288	14	-0.16397275601350778	0.2167835163998813	-1.1629163356241483
Si	14.899156282922869	1.53757190743992	9.45691222905594	14	-0.38047216527551275	0.7850034485843111	-0.18786218109566366
Si	10.732583413263889	2.76720693424164	8.158458590670959	14	1.1780074383007575	-0.29593499368063997	0.5992254054611595
Si	12.343491423200915	3.9405845741953676	9.623441894110307	14	-1.730870929739539	-0.0651968031556549	-1.0026050906970634
Si	10.946757982488768	0.085621077788004	10.90194057263124	14	0.6287121268252778	-0.46013349274125664	-0.4841630430633606
Si	12.452024954904479	1.256756222252124	12.2947252712856	14	-0.23980493632595523	-0.1562882364326492	-0.2582467034557813
Si	13.73114113218342	2.833376801152392	11.006509112309699	14	0.41433850744197126	-1.2460003184920736	0.4112336406573604
Si	14.915861249323715	4.271417658781812	12.414780029816207	14	0.7316087901797319	-0.14741689463601024	-0.9722524210611195
Si	13.558663979091396	-0.218513310498252	13.799358494975987	14	32.86859775036916	77.94558851925564	-62.88671361939241
Si	14.931672467522183	1.364932254674736	15.002327325412152	14	1.009760733913568	-0.5095712200581279	-1.0252732407521492
Si	11.092471439411339	2.6854208487402116	13.374925598649384	14	-1.58788867755972	0.2381589146999964	2.2130516506010656
Si	12.097596917775205	3.9995882055197636	15.100704627543216	14	0.8649987626311423	0.11339757170300296	-0.30087691521649657
Si	10.836241954772651	5.522486392473335	0.286389423977184	14	-0.2691679875241743	-1.5772682128137845	-2.247268177312128
Si	12.218122925357976	6.873979924177739	1.2818136718533961	14	0.7454523925550052	1.209058163031122	1.112588491645442
Si	13.524262798283424	8.19006477710058	-0.125904746764368	14	-0.010043251601562426	0.8000891519397478	0.30847273166381006
Si	14.891811297696036	9.572189497195643	1.45916581514022	14	-0.8534789252442189	-0.43731956101451885	-2.111579122483441
Si	13.548426499682316	5.689178557200864	2.727817013467656	14	-0.15103006894241436	-1.6635658202213626	0.39971020372298866
Si	14.867127597343032	6.90769860635844	4.232368987321464	14	-0.1488122334932546	-0.6272147150868235	0.6480872051863177
Si	10.917589291156547	8.092906222518216	2.7995606191677957	14	-0.4510595478453901	0.006259098791368483	0.0015866290930633797
Si	12.311316487915235	9.515070862079902	4.016731921038144	14	-0.8781592223228523	-0.33547962194664543	1.6003739649943591
Si	10.611618656563584	5.501150185387427	5.459794018568208	14	0.7297892189446632	-0.5064257298094589	0.22244843275176363
Si	12.140545581391391	6.590856743631072	6.828853764941208	14	-1.215970836794872	2.0920096685601983	-0.43472891529393753
Si	13.53411027847692	8.226107204607468	5.668979847827075	14	0.10693689825453488	0.3378522379360781	-0.2979918779367584
Si	15.0657509478465	9.835552717486054	6.817332538114163	14	-1.1436024495697281	-1.142592776510506	-1.1405752301657859
Si	13.347820653166295	5.479732728464939	8.275572105117371	14	2.427654098357865	-0.510404258181856	-0.023393715976431327
Si	14.722535388165264	7.130713157803223	9.369422405026596	14	0.438434392281335	-1.7135707333718584	0.3862301556399843
Si	10.672702283704428	7.888449133748304	8.345755713955175	14	0.6081368565007927	0.30109905871615733	-0.22142513283434465
Si	12.148784314820604	9.567233257164263	9.465979710818267	14	-0.608090062383966	-1.162475133951211	0.6061244523667129
Si	10.794755788214905	5.29651434697704	10.774297079364061	14	-0.8308074327522171	1.6898258044086951	-0.5674642843308383
Si	12.049074515369627	6.804462563999892	12.248396614467683	14	-0.18315088770702428	-1.371022628679062	-0.25671843845348535
Si	13.35974812917624	8.138243631329857	10.992176641136988	14	0.9091220152512676	1.4880521437573062	-0.9754963846435503
Si	15.027319775144159	9.3571374297357	12.180374251282908	14	-0.5566324747275864	0.6543013096345835	0.36914490367706837
Si	13.364281870057404	5.396305396264596	13.601775142380742	14	-0.07533184321714663	0.6942873966840584	1.266946342203724
Si	14.876763827961419	6.701535271020348	14.964887400716087	14	0.17195449536937546	-0.7472452242947445	-0.4775727859067571
Si	10.505067620872572	7.9202340698184	13.492802861559646	14	0.008965444251356352	0.06121030435676532	-0.26761324013708077
Si	11.940134734483163	9.306405031775148	14.608135618260624	14	1.1555876570195982	1.6451641623345308	1.3326907907925702
Si	10.81549074651012	10.842888191404896	0.083264832527184	14	1.5138673267242528	-1.0309173311509383	-1.1102058483452606
Si	12.473751161205971	12.22558166035602	1.0263479356785599	14	0.5888826200897997	-0.6830935754517298	0.029661556525888314
Si	15.123454581785614	14.951627427386232	1.2714136927711561	14	0.5743278499829736	1.1407672917332008	1.0166366408712397
Si	16.46648188051838	16.379577055312414	0.033296183030484	14	-0.1414498734090106	-0.38060586275216046	-0.007517654845580969
Si	13.63448632658785	10.850151926795148	2.752403214016764	14	0.16524571025751308	2.075116221054165	-0.03191178790208191
Si	15.120058338616571	12.386147587405414	4.066261821417312	14	-1.2299010854194345	0.06934888113716205	-1.1536996943830138
Si	11.0471340305997	13.17579849915912	2.483011255852116	14	-1.0925420976853113	1.711171120776564	0.02929723090202333
Si	12.035067043543235	14.820343941440267	3.760274936857032	14	1.2779812691272674	0.6153616624504088	0.44687096016833683
Si	10.89327934005181	10.858325660355096	5.492683952415791	14	-0.7592905956091063	-1.2870819535184637	-1.2866335527506298
Si	12.175385511316897	12.13469559315763	6.729013965751704	14	1.57301946127224	1.1742052877533224	1.1946522599223321
Si	13.450065447518568	13.594495157023177	5.206960777098564	14	-0.013259704357067673	0.1291376213624175	1.1826876213150233
Si	14.658494266972907	15.018934792009103	6.775732621785203	14	0.516307258886384	-0.5641897245950976	-0.5099064921918753
Si	13.618463858814275	10.846771933593418	8.23491468689274	14	-0.5335994848275719	1.0907163557974742	-0.585673623539723
Si	15.163640750958084	12.228961653557748	9.311540021447003	14	-1.4563247041066787	0.1491696171327552	0.23400066606572092
Si	10.931889262394629	13.46813541117396	8.267560871230582	14	-0.6078689473264334	0.4267376628483854	0.22473517382350328
Si	12.425098759061868	14.864056353520308	9.685614269061324	14	-1.2141587217652319	-0.4718399923744229	-0.42047779272542074
Si	10.677772273507019	10.793992039751052	10.854458168133888	14	1.3093893774971326	0.05831549687681059	0.2964769826821272
Si	12.135751841033171	12.285982788869592	12.172558017003912	14	1.5298482889521652	-1.2419505705023084	-1.5674918419444535
Si	13.905113282268516	13.430532986804735	10.87009063669188	14	-1.51954175616582	0.44074530174308413	0.12964258644729457
Si	15.016172297565383	15.117604593551857	12.03098830174692	14	-1.3787112620284327	-1.4882871427835676	2.2455807608905154
Si	13.470849155715731	10.86846563996028	13.396733054787456	14	-0.34767488870117186	-2.0512810462942648	0.0759512224887703
Si	14.568095698793998	12.081671949805523	14.976473627412394	14	4.148765626523186	-3.68902397023272	-1.5124311072924181
Si	10.871195634469368	13.563912718534464	13.414331769390683	14	-1.2305672588078846	-0.04541960392254388	1.33445688303698
Si	12.788691777757368	14.35208488326241	15.232524362410608	14	2.48281562033845	-0.451891300416458	6.315340948915127
H	13.346402031019608	15.512316299657495	14.21873115148039	1	-31.13684107484683	-75.35669680672383	60.81863091405204
H	13.89032093702076	13.267376814965168	14.689593454422269	1	-1.2354888686117123	4.13862750113531	-2.653294044143528
H	14.315254332340698	14.09458302618288	0.3953015799192108	1	-0.505715847630566	-0.5413248849830208	-0.45834451765949763
H	7.420419200109603	8.805980788292002	11.452029591222278	1	-0.04297808231053126	0.2677574791455411	0.3101683756224477
H	13.66114439796975	12.887288454447198	15.752243817084771	1	-0.9999815348283846	-1.0956654764282272	3.366600163991254
H	13.045912510402331	3.439910081215555	5.149907141852087	1	20.424651889504343	-2.684803968284071	23.787358114488235
H	11.904917805315929	14.675246358278972	14.397017667887884	1	-6.557550640047016	1.3800736907375792	-5.722949027173857
H	11.520086079338418	11.281567434077438	2.036125779684995	1	-0.24242952063676235	-0.1121169041430372	0.3263699386868288
H	11.631555980135982	4.547298228895738	11.685562746510708	1	1.2575291547476175	-1.0032440103691203	1.284658943864756
H	7.52843760784925	4.956812030229523	7.42513819061817	1	-1.413628672049768	-1.6541272925910993	-1.4151003727350207
H	12.773844182620737	3.5422475003815284	4.833754277738919	1	-18.48524580634249	3.447534188590472	-23.283745173899014
