221
config_type=interstitial dft_energy=-23292.94870377322 dft_virial="-42.47184735692602 -1.5844130239334362 2.9333591249145483 -1.5844130239334362 -41.56988931307474 -5.39977536872025 2.9333591249145483 -5.39977536872025 -30.063937806777272" pbc="T T T" Lattice="16.3199774331 0.0 0.0 0.0 16.3199774331 0.0 0.0 0.0 16.3199774331" Properties=species:S:1:pos:R:3:Z:I:1:dft_force:R:3
Si	-4.5794019877052925	-2.0216372045252626	1.9245170188208844	14	0.6235835430431783	1.9594984999072143	0.7828218657201654
Si	-0.1252068668667432	0.003753594809613	-0.112444644514059	14	0.9088829024564938	0.04561577925847118	0.1619783496166689
Si	1.3185888966847477	1.3092538695930145	1.2573726613331895	14	-0.04346607810029537	-0.13719726520948566	0.26416693056595425
Si	2.6565006466502856	2.756901147818717	0.038515146742116	14	0.47607023195766257	0.2486150858159746	-0.5066154773820858
Si	4.0637886206839315	4.075457404548598	1.4005151833989096	14	-0.9952008215961011	1.0941055868304934	-0.13080935404157779
Si	2.7535392324674985	-0.0445045784600637	2.5434521629712017	14	0.12795259892036123	0.6618302773435731	0.7896026417809919
Si	4.143544350399492	1.3293764017680267	4.057342229597857	14	-0.9736503310236839	-0.15153734802207955	-1.0929305916991858
Si	0.1520205897893265	2.7574560270514423	2.6788426957561997	14	-0.7100032779534636	-0.24483016167418467	0.16555578555912293
Si	1.441233527094494	3.986986806883763	4.139268516312019	14	-0.5645180547444806	0.30626878018337905	0.7666591263461187
Si	0.018604774273734	0.024414686239917598	5.498657356579517	14	0.94486346452771	-0.21383985791884377	-0.25155205942317976
Si	1.5040980801667951	1.2492453125715057	6.885365839070023	14	-0.48672746350967633	0.2889094483933353	-0.38995311614355876
Si	2.7713769678018765	2.5827180286752407	5.41307539492034	14	0.07610420325531911	0.5070628497077916	0.9424165435945251
Si	3.9180185822514826	4.124809016306293	6.916749155673875	14	0.5586181393663368	-1.0129136803676653	-0.5559197643328414
Si	2.909786696411998	-0.036736269201908096	8.259410019072446	14	0.5667502883834331	0.8551126055646409	-1.019434517680625
Si	4.233418466123573	1.401265902360832	9.539157369466416	14	0.042148386623719475	0.1866200801155001	-0.2715033224864648
Si	-0.0085843081298106	2.633032519101488	8.081946584464916	14	-0.7441969218271769	-0.01641573613754944	0.4164416715938524
Si	1.166209267391893	4.043225449118226	9.490344316964013	14	1.4698446043221456	0.36193886679628934	0.29505181900316907
Si	-0.0261609238252593	-0.17991143122249442	10.715436062934529	14	0.8483739956310649	0.026024728050538855	1.5351061993318682
Si	1.4601973408717563	1.349156214416944	12.187840746926247	14	-0.781285887401909	-0.3085696623343796	-0.03650763866184661
Si	2.8816347353399	2.6756603001567454	10.926991930399806	14	-1.2696830267064896	0.8910106351550805	-0.7385080941958173
Si	4.052283036593596	4.142255072182277	12.292207002610919	14	0.8871210670267604	-0.3071223871496683	0.1352722786562908
Si	2.883511532744707	0.0920283527452509	13.566797240136031	14	-0.5424862532561318	-0.13228079761629852	0.44330329442609934
Si	4.184491173779139	1.4191362776500769	15.056713259913462	14	-0.0014285061158742728	0.14085157720101213	-0.4144632060499983
Si	0.1018856191148433	2.7581741060584983	13.604855427510019	14	-0.14143676077187783	-0.25056629764343497	-0.3304824216464057
Si	1.329115282129097	4.249118284414216	15.011555882356072	14	0.6182654687989841	-0.40511595265860006	-0.21221363380385014
Si	-0.035332751142661496	5.664598887119278	-0.0389394661553766	14	0.21988092697906372	0.2920927338902107	-0.35185987683077685
Si	1.3049780355055423	6.982208585158039	1.3666838701800932	14	0.7606967331086952	-0.7719383768999787	0.2622982512192707
Si	2.7804998351869794	8.270034324381394	0.0043574339746376995	14	-0.7497317402498597	0.5018530189975755	0.5663121720368799
Si	4.052054556909533	9.632311800654549	1.5013726439354675	14	0.008823519237684178	-0.2126733474350926	-1.7395121576100248
Si	2.6106578300407075	5.44907726513776	2.8804596969647167	14	0.7355235551401894	0.6967451162595879	-1.7162194860726754
Si	4.051287517970177	6.832554392096512	4.114364230749109	14	0.13893610373750181	-1.1718324146533579	-0.6456382273688765
Si	-0.0419913019353663	8.215509279777406	2.8161263459234367	14	0.5933776835210147	-0.31874172631248143	0.08678843141319445
Si	1.3742563397090517	9.526297227249133	4.185780451996354	14	-0.2522719689128212	0.6443668157880633	-0.36531292830791967
Si	0.11530064056485151	5.428089774158793	5.571264936179379	14	-0.7822346252650436	0.01099481768054923	-1.0299323407027894
Si	1.23052629845574	7.153633628115322	6.7054217678926635	14	-0.4898801528532419	-1.666942709948845	1.1478830828172426
Si	2.7742329638526693	8.11476605908288	5.433148967163053	14	-0.05387031288880658	1.4628301147877174	-0.23286243774049137
Si	4.0732378876176965	9.492351674188285	6.7630802481638055	14	0.15673098076877867	0.8176641994661522	-0.05111588775933194
Si	2.4695063452218258	5.5995800970258065	8.020697709158492	14	-0.8047742200541219	-1.3041620632707394	0.13635985620671343
Si	4.0224174778910236	6.655009357601817	9.226597161667684	14	1.6638458135907266	0.5924253461104317	1.3587013777638484
Si	-0.014606379802624499	8.352646050147746	8.317313299005084	14	-0.7154326810580203	-1.18634964662251	-1.4754318732933591
Si	1.3994380648883251	9.493477752631168	9.533886016755522	14	1.2030798289407136	1.1295349039210698	0.9687611171468904
Si	-0.0998293019582727	5.480460581741609	10.88795454437983	14	0.3088856511782258	-0.3137782074919356	0.32994171819757856
Si	1.3604496388006493	6.800012357094911	12.187302187670953	14	-0.1103040177818008	-0.04472360571237979	-0.1382429337431899
Si	2.800051168151833	7.946817171318847	10.73012404262432	14	-0.4016734997454538	0.5800341611305102	0.2526879737536212
Si	4.037236017400278	9.25726239926448	12.231153967033693	14	-0.08380672057341872	0.6361829875540321	-0.1700505918798058
Si	2.742376367903258	5.572423654577128	13.609571900988186	14	-0.25173100835346207	-0.4074080930515121	0.24048679345685844
Si	4.064017100367995	6.96557852815371	14.969874659991936	14	0.704940257357028	-0.7175394447573497	-0.49674628961069733
Si	0.09317075116556789	8.207724650541817	13.609017021755461	14	-0.528409965849385	-0.18986995724016728	-1.2152496417525704
Si	1.3330483966904743	9.557680543852983	14.915594415049444	14	0.5959320766565818	-0.4503064710971188	1.3497834989609148
Si	0.0977240248694028	10.787162363753005	0.0889601969878281	14	-0.06099535995200095	0.7874459986384518	0.4057129633139384
Si	1.454893348205999	12.3121663350116	1.4000255840759166	14	0.5893703587690319	-0.8441841224013515	-1.8137553948346208
Si	2.8537765338615984	13.559583810110599	-0.1632324142858662	14	-0.6856459117030408	-0.10628717994013345	0.176287836275953
Si	4.134421483014388	14.98327336146451	1.1956994666135046	14	0.5411590486898713	-0.47536574909994206	0.3942864570501363
Si	2.687378043953711	10.95359349361576	2.7663014548201823	14	-0.19874207036840227	-0.3030412716749973	0.6626067511502579
Si	4.194397400081031	12.24766978419599	3.960744283171338	14	-0.2526113548150808	0.7059108496153839	0.3114405585348569
Si	0.1699072850560041	13.673464612638773	2.583958346960156	14	0.01903646379037638	0.2734776742618065	2.1567578138374874
Si	1.5238126129059801	15.016256035856808	4.113776711561517	14	-1.187147717713884	0.40956010820447597	-0.8238029705285378
Si	0.0098409463921593	11.013096131336841	5.5026720710280586	14	0.2048340473139611	-0.6676553735569006	-0.48769342777845603
Si	1.538157873069675	12.296907156111654	6.636355623395784	14	-0.8312761452520802	0.9516378128252362	0.4106584843972433
Si	2.9519738380765608	13.731074132977614	5.32984351001153	14	-0.13372473036409369	-1.1100600666736082	0.7679590771959854
Si	4.247535246603205	14.906210428025412	6.888744074398676	14	-0.3049714004388324	-0.06686570761896303	-0.1526107844932414
Si	2.6500052956319116	10.908452436035804	8.076789471596056	14	0.009167790240052006	-1.13346021041334	-0.4278062142194389
Si	3.942596468265731	12.216710787005399	9.36246097379824	14	1.0420869839932574	0.2935556928173749	1.3637754541131606
Si	-0.0380745073514223	13.62053892582323	8.078241949587602	14	1.051231634285428	0.09942978494076651	0.04058258348374929
Si	1.4757502793655006	15.0143302785197	9.361530735084555	14	-1.4286956063363676	-1.1159278432352502	0.3713933352795379
Si	-0.015830378110107002	10.878456317513766	10.815151125050772	14	0.09526870809063887	-0.16231053642403204	1.162735844030674
Si	1.3703395451251077	12.204960403253567	12.274532467050873	14	-0.07538609353940175	0.3405099895055152	-1.4293918616570636
Si	2.67205358514403	13.66599006297441	10.767725270630184	14	0.5490484853647456	-0.8018675854896943	1.142629800427116
Si	4.134927402314815	14.984823759320657	12.216825026847433	14	0.16805721392509498	-0.2541234218538599	-0.524608329523014
Si	2.633750598108544	10.721115415081249	13.49846549462364	14	0.9952087920225936	0.37389193542965776	-0.6406505401583212
Si	4.080190198004197	12.132972982796163	14.66671475919467	14	-0.5431480557655378	0.15495254721883225	1.058623562080854
Si	0.1137992026410063	13.621746604153278	13.626822117134973	14	-0.10523019854302057	-0.02162119596872124	-0.23982524805798439
Si	1.4107151692945972	15.043706237899281	14.922138726000119	14	0.6261767598690797	0.014479950942009953	0.07227839853893876
Si	5.651428665330766	0.017021736462723303	0.0239250869169246	14	-1.1836242749831531	-0.5560958850472715	-0.9208655388010438
Si	6.78884949253067	1.428634504516141	1.3092212296381482	14	0.5819429497201882	1.3835146009875334	0.9962236072924562
Si	8.12419900603921	2.8482440615117777	-0.061852714471449	14	0.7411897570447318	-0.22763820884048253	0.437757934471604
Si	9.631120442301933	4.122589499375391	1.421013075054883	14	0.07693004228415068	-0.955749781563749	-0.9937908274385319
Si	8.297680366153065	0.1543217066073936	2.5846927459446456	14	-0.3637990614954165	0.17492643600893465	1.1205674027854573
Si	9.565155093517342	1.4140281247135165	4.179905260120439	14	-0.5315657405193348	0.6136894155501845	-0.8176050640437889
Si	5.362777224471526	2.7932457375622306	2.7383942934095815	14	1.245524921118378	-0.8525350724811925	0.031958067797844575
Si	6.752129543306196	4.0960695360466035	4.115800388763221	14	-0.442028026187306	-0.37226545420413204	0.1424862859635623
Si	5.350782041058198	-0.0541170451681596	5.374951927636618	14	1.1964584614097362	-0.603314491362323	-0.3475643311724054
Si	6.728335016208735	1.2359608509409623	6.6509620031984085	14	0.5273594122155725	1.289779814330895	0.9506805903145449
Si	8.066034606467642	2.842107749996932	5.561097590238558	14	0.7205301544657459	-1.1454834702219483	-0.9303161506263122
Si	9.632246520744816	4.046962723950406	6.786189336209075	14	-0.27872941398874096	-0.12834083582370362	0.9205415795307053
Si	8.194652348617904	-0.005940471785648401	8.013761718749423	14	-0.1680713550043558	0.6427585894103107	0.7130148136149531
Si	9.494032631863893	1.3631097951222444	9.502894379610066	14	-0.3205119323254034	-0.47905348546063037	0.2784093113763826
Si	5.605259449172526	2.7614217815676856	8.169813342964726	14	-1.2169833380699464	-0.3551123250607642	-0.650506872403109
Si	6.85065324706982	4.077954361095863	9.58803570187855	14	0.9167898226475452	-0.9233620820669077	-0.4270001727015725
Si	5.566336302994583	-0.018784294025498097	10.781531971538586	14	-0.8754431066626479	-1.364058532808909	-0.4641403032721754
Si	6.669583097449576	1.3089274700443523	12.161696143078418	14	1.9563057013206546	1.0520741854988407	1.3378607693703242
Si	8.205945773001611	2.7050852194686246	10.928950327691778	14	-0.48335288777698204	-0.46904571511248594	-0.21880337673938963
Si	9.658195284863448	4.146987865637876	11.994138934772781	14	-1.254895057347126	-0.4872511976633904	2.029000618921457
Si	8.219572954158247	0.0374380282315314	13.540163036965211	14	-0.25277076334493	0.2946283579569407	0.41606191933806647
Si	9.580773311920819	1.4072879740336461	14.973938334372777	14	-0.722719450645852	0.4873054479856456	-0.1924747440400093
Si	5.571330216089111	2.7732864051615493	13.640498258223909	14	-1.5366874291037593	-0.427600525793827	-0.6247500535269295
Si	6.791101649416438	4.205135945232011	14.888095253074672	14	0.8143467022715651	0.6052219943993409	0.24728325326013792
Si	5.369778494790326	5.526792997674181	-0.009286067159433899	14	-0.4667630878092585	-1.0852998082195182	-0.7718087931918431
Si	6.728971495328627	6.703463370600692	1.330894159669305	14	1.5754848941637298	0.6311004265571633	0.5056415426868136
Si	8.114863978947477	8.277247754406824	-0.0091065474076698	14	0.7703625464492598	-1.7293550060427798	1.361821928290912
Si	9.557794783695016	9.56712981078675	1.2995271630428868	14	-1.251757023303885	-0.6406595390269418	1.3972774706557543
Si	8.165994468245382	5.2614628045668415	2.7622704203942066	14	0.0029475151390177578	1.6725222656040986	-0.15926274817752847
Si	9.554351268456632	6.679065004338207	4.13853411732753	14	-0.20457539411875422	-0.5421990607918712	0.04788015171392559
Si	5.307599380770215	8.049845188854007	2.5890664998967163	14	0.32287914899366377	-0.09676637693962511	0.5844909150924549
Si	6.686670113822031	9.25205632646332	3.9953915952618098	14	0.17699360468633368	-0.01854409712156802	0.8949043170519125
Si	5.288586607060654	5.344351969949557	5.454691337374745	14	0.21033724114120608	0.5186953015077375	-0.053675165995007344
Si	6.6735978118981185	6.691386587300197	6.7795307854163696	14	1.51034105577767	-0.37543331306908656	-0.17200591747577842
Si	8.187797958096002	8.01284780001317	5.449697424280217	14	-0.7726739701320731	0.2418664485716499	-0.263796691399853
Si	9.576481157855914	9.54633815953698	6.564498762757845	14	-0.2516829286839753	-0.15172606715257841	1.8116709997515765
Si	8.168883104251039	5.295767397131217	8.140339463720547	14	-0.022808018184501594	0.9949257133268453	-0.3643706182080854
Si	9.562282777489118	6.734585567565613	9.395117248641874	14	0.614686490193338	-0.07430262975749134	-0.3773212757056712
Si	5.502851590779824	8.16715318664313	8.031485214241771	14	-0.7629883592805432	0.022550393431422757	1.0378621437311901
Si	6.735858525805395	9.499255024642485	9.566281171960226	14	0.4244100412020553	-0.7430211553642733	-0.6893575593432065
Si	5.493483923733224	5.338656297825405	10.817370641981674	14	-1.839515041926652	0.9384534418540488	0.021395967142676272
Si	6.82312144514018	6.686784353664063	12.134653940471773	14	0.16386348403740147	0.9342676823928477	-0.3660297524711769
Si	8.233412295021518	8.017042034213476	10.737500672424082	14	-0.7170077401771431	1.255594655104738	0.8595580466631771
Si	9.381212627868873	9.630059643768782	12.188493546023569	14	-0.3385587776780548	-1.7948508287471676	0.20962041697794875
Si	8.239989245927056	5.510668859970279	13.451382359729147	14	0.7883952507226505	-0.4621716079285381	1.0903972816272436
Si	9.556701345206998	6.94114752193636	15.054297903253362	14	-0.5071674936943215	-0.7138882180922074	-1.433025090584965
Si	5.603268411925687	8.109200946778193	13.533063846781813	14	-1.127710961806957	-0.7343860981465559	-0.12298008123119485
Si	6.756454337325967	9.374211357550074	14.997961341154301	14	-0.522471741001971	1.830988228242913	-0.9356031144961326
Si	5.318027846349966	10.831112062980344	-0.1804826304326529	14	0.32551427483628353	0.07588617352417056	1.2658093994311546
Si	6.631051630730026	12.175176444438161	1.3800662516752353	14	0.34907536976905645	-0.7134097353921277	-0.4451555186987341
Si	8.191763712612246	13.348517541968318	0.0934155508270644	14	-0.41537543421758694	-0.037589045559500885	-0.23717855224142392
Si	9.397353085550208	14.964880746897407	1.2372664491356105	14	0.43428102874716773	1.1476617106491778	0.0012680691438970327
Si	7.940305500323041	10.648132476000427	2.711890650058227	14	0.7829442503334045	0.9596511767765417	-0.26425486236790335
Si	9.285202200629945	12.092760558401006	4.153091537197855	14	-0.09528053517511154	-0.28430537009654616	0.0476148136448863
Si	5.508612542813708	13.698205698427351	2.682025091355654	14	0.06039423552815032	0.5260800302082668	0.15693486942066645
Si	7.024526286642067	15.124539086125424	4.028765949112499	14	-1.3363080788674866	-0.7642505148822039	0.004795882753672212
Si	5.4297380918795355	10.835910136345674	5.288194927602259	14	0.04643004831336207	-0.960438963446635	0.27497380044760067
Si	6.881987603741372	12.048615019444469	6.6179956487835465	14	-0.9499992474047058	1.3407514630817665	0.6030684365831848
Si	8.150686329413134	13.657862714212728	5.512480377465352	14	0.7241114470661801	0.46421280844220364	-0.21767928949342094
Si	9.676033020197824	14.99237990887218	6.9307027363791756	14	-0.611388276288652	-1.048658729191556	-1.3495621267928501
Si	8.054055743031748	10.823980232842079	8.111012464273267	14	1.3607803735257202	-0.7431710508044378	0.2856014642884328
Si	9.425015447299312	12.194401377854351	9.546909358747138	14	-0.12780553169604875	-0.42583829020739755	-0.11763938126018327
Si	5.5650143848225015	13.452916437607858	8.174448216555728	14	-0.022241860793004987	-0.37715286830720157	-0.8102121078062349
Si	6.926263702517373	14.913260658276512	9.36866256522282	14	-0.1008531488460005	-0.04591505591773641	1.0390530797154827
Si	5.197668012780854	10.709658790923212	10.80925961319742	14	0.39880568887136064	1.3203790529670412	0.27826635792058235
Si	6.620133565827283	12.255536013318745	12.146828643636864	14	0.12762941098161862	-0.3713647960104842	-0.04127909591497741
Si	8.181661646581157	13.605589826494509	10.926257531415317	14	-0.24179728583853796	0.33298564978610184	-0.19010187094004463
Si	9.596815849737558	15.047247673002264	12.226421173578094	14	-0.22578032813614346	-0.7368049940317513	-0.04607266467386149
Si	7.9355074269577095	10.825628550562822	13.542105114279751	14	0.12344442285201361	0.2638630259171128	0.3063572262063922
Si	9.396275967039625	12.043278386823847	14.98431784002023	14	0.5350285051645102	0.20136691178974142	-0.7449628541020491
Si	5.4691181974256065	13.641314257095564	13.666903981710666	14	0.5030146443812185	0.5033846264367877	-0.7872472521972044
Si	7.038969466670362	14.937218385148302	15.04759039252836	14	-0.8056383685522235	-0.28388602281883	-0.6536063398665475
Si	10.948485340679198	0.131539018110786	0.1223345508385176	14	0.23228702436984225	-1.179282192318487	-0.8520277934015273
Si	12.493432324361043	1.4666926918901302	1.2883479785012133	14	-0.21368662004176298	-1.0059894366299744	0.6720460501121175
Si	13.723126303967696	2.8823528143469566	0.0016646376981762	14	0.5054965323467574	0.09930945721178358	-0.6124627412019419
Si	15.184645563011532	4.201006990941437	1.3158308204985538	14	-0.9178879417297803	-0.617586439883933	0.40905077224055475
Si	13.74125779889587	-0.0244962861270831	2.6760519796151394	14	0.9127457310894842	1.0030378077224444	0.03455334150800205
Si	15.09534264649761	1.4516293527193789	4.142238752204843	14	-0.1465463183746081	-0.43227016727628	-1.1099561940186742
Si	11.01719244567255	2.575341398875479	2.6480632183173727	14	-0.5668729301072042	1.3114717156959204	1.2833325106300917
Si	12.293871640309098	4.003665823820391	4.206262023674895	14	-0.49378000540284245	0.6996890318511576	-1.4415950988380826
Si	10.871846726653361	0.0031334356671552	5.435417444026254	14	-0.6520114832364596	-0.6829999872180764	-0.319117107689223
Si	12.089757682553314	1.2464382764530124	6.8129867391542245	14	2.1057956781763005	0.9576765678906679	0.7300671554297712
Si	13.592305364863966	2.6304213227121918	5.451149902271763	14	0.05281513126541781	-0.02714598708065543	0.9914642342343298
Si	14.854769859156283	4.164695041152789	6.794855244226051	14	0.6779246253161041	-0.7758189461596782	0.4602983005922782
Si	13.62039204602633	-0.0204162917688081	8.23636621093691	14	-0.7499135173959942	-0.20832972210723447	0.42125272386891344
Si	14.978034648708485	1.2970138865181895	9.716604484096512	14	-0.7863296247084435	1.5779996922773665	-1.4624976708698223
Si	10.917036744165614	2.6451582623342813	8.247006836223289	14	0.025905942984748017	0.7667740547539292	-0.6472595663837619
Si	12.348788364371478	4.081756915837775	9.506337894848452	14	-0.3117223516779452	-1.1838955265944286	0.009180902877184762
Si	10.956465809643984	0.0235497274359633	10.819263759363913	14	-0.36208850512592194	0.44269857045480054	0.5178236968042074
Si	12.296646036472724	1.4074674937854101	12.268379835558594	14	-1.2563101937153354	0.7142340317577672	-0.6931298850689278
Si	13.65381535980932	2.8556696512438378	11.030852266784056	14	0.3855866079783513	-1.0422037121747922	-0.27865176660807256
Si	14.965305066310668	4.167061437880588	12.41060843888806	14	0.13022879846028834	0.4385315800624366	-0.2614130196575437
Si	13.50241492916245	0.1288625418117576	13.64860928700816	14	0.9628167216467081	-1.83996524246821	-0.0978824937591014
Si	14.941804298807003	1.4372351326233848	14.887360854090181	14	0.010002628137504086	0.37873178408430447	0.24743057759498238
Si	10.842372847409182	2.847656542324186	13.568004918466078	14	0.6151978830415155	-0.5879981598596689	-0.18988435542996013
Si	12.304446985685745	4.130667888204776	14.922269285819583	14	-0.3990216617182531	-0.08095562188390652	0.37920306768948764
Si	10.944764385824453	5.495311761205731	-0.0662264684235198	14	-0.16175003546423974	0.18458967824417916	0.8605558926379265
Si	12.23724131861624	6.977361551860408	1.3074260321205073	14	0.276922698280273	-1.3213604438677418	0.40410036605714156
Si	13.578939303346257	8.301825640421072	-0.1067816123447733	14	-0.11450777498024291	-0.08789580647458223	0.6993691863493312
Si	14.969825700059637	9.47738625488213	1.4289609040648028	14	0.110620006625647	0.3534789018508741	-0.9773576077848054
Si	13.633431707995378	5.346261407309229	2.641192507818038	14	-0.7423184722802767	0.5792728568452143	0.21297108143116578
Si	15.029736337216548	6.64523369111939	3.9857138486439814	14	-0.2111466250959887	0.3143217391566149	1.031783793643828
Si	10.72158869442681	8.111746863257757	2.751417635401195	14	1.1105712024112537	0.577877003766906	-0.4756028050104596
Si	12.260497286458406	9.545195761116663	3.962800600327909	14	-0.11779416180045618	0.13272457039455607	0.04321693799477302
Si	11.02452011554001	5.489632409059012	5.630277974577468	14	-0.17864219741761264	-0.26930888409571846	-1.3266052416103118
Si	12.383892635830076	6.938715845298828	6.831085594127533	14	-0.2843274816022994	-0.4068126250593658	0.7840660235845851
Si	13.617323890268908	8.152465206953341	5.316885447929649	14	1.2243019893637477	0.3382278764233517	0.16107589164929692
Si	15.018573472652307	9.596848489692423	6.872962656220868	14	-0.9271729743724311	0.014510804205851727	-0.8597956167947586
Si	13.607597183718779	5.490383128020936	8.311748186700395	14	0.6457418429132785	0.6888294543104481	-1.6188201030032296
Si	14.948560769464308	6.924223705338235	9.559345181551159	14	0.24326178742889432	-0.6098340431226226	-0.0596005353158206
Si	10.939036073745434	8.247512755523715	8.15625144171782	14	-0.2988760810563573	0.41857260368319105	-0.08468963814035758
Si	12.208926157769811	9.631479481805462	9.723148795047186	14	-0.4381240598691931	0.13298270936869894	-0.8028983416125417
Si	11.00914669679803	5.385935272449095	10.750736174122325	14	-0.11226474269894574	1.5455515718055017	-0.007035829708585219
Si	12.218538624477906	6.715719673652949	12.315462970453087	14	-0.09558212582916491	0.5683466876767131	-1.259951393069729
Si	13.562749885732622	8.13229371484603	10.906118679262871	14	-0.3248856395855073	0.49084586001148955	1.0113399068012026
Si	14.921551206812527	9.510319969342126	12.307074502052474	14	0.23256444663388623	0.3543088546482179	-0.5324162621592398
Si	13.611187578754063	5.606956726825568	13.736117006004442	14	-0.29243032001874614	-1.5209661485131818	-1.1094103483592068
Si	14.907205946648833	6.991462012362606	14.835577565694956	14	1.081406383433218	0.17611660066163118	1.624541326561623
Si	10.813535447284895	8.176814613283526	13.452312598442834	14	-0.5939602959865603	0.1584947590184003	0.38017545972156763
Si	12.089055923523691	9.486688642018997	14.870420717514625	14	0.9021054688325834	0.517054422092419	0.13925209258134802
Si	10.898611489643644	10.844559724385217	0.049873851035553605	14	0.34691821240545223	0.680179741792406	-0.816114080068635
Si	12.406903804010748	12.174213565769607	1.345418939584764	14	0.15973711710909583	-0.25696834989060374	-1.0660360587188409
Si	13.83082183504872	13.494352860310498	-0.0702738228269286	14	-1.8188505542475581	0.43836394399556294	-0.2892192665844131
Si	15.084587781369196	14.834467807229506	1.2813630281598465	14	-0.8510011510471922	1.390244212052489	0.29445660812155483
Si	13.773652954100573	10.97461362454959	2.6922413972287744	14	-0.3551892011098366	-0.6024140902792071	1.1545445595912143
Si	15.087982336675282	12.412142516766773	4.060067665829185	14	0.9425443275289365	-1.0759592397019524	-0.9628755999585393
Si	10.052616499466607	12.840215524836985	2.1129801182183234	14	-0.6610139514044261	-0.7049114609774424	-0.2350108533460071
Si	12.328747432083631	15.169663823727946	4.083992752746109	14	0.32891276184845525	-1.2170504439188021	-0.14463778689546222
Si	10.998946710902343	10.978367219359205	5.386930791072514	14	0.06664690655621844	-0.047400383461185955	-0.3063122318632896
Si	12.41344811496142	12.343223252066792	6.784230938917103	14	-0.7876609430432162	-0.5078714623309781	-0.17338660103269796
Si	13.746300671922697	13.634557786438261	5.319235524680016	14	-1.5185624221493754	1.350654846553913	0.850701103056331
Si	14.930070235032606	15.029116178074089	6.805740669173929	14	0.22771122823157466	-0.23709293443426302	-0.24632603074944678
Si	13.618694768373288	10.916073865497061	8.206924971647595	14	-0.010833866487507962	0.20418304344689958	0.6263919613843761
Si	15.00470149183417	12.371097773522525	9.614376145455573	14	-0.21245377504075197	-0.7513458801698486	-1.0363446773712386
Si	10.810434651572606	13.419362564005406	8.165537508877254	14	0.8888203105328463	0.6349632551901537	0.06694721165761174
Si	12.111903891930032	14.854312899788155	9.524779469347854	14	1.240088833139989	-0.17757210338336699	-0.29356366324386735
Si	10.760577120514485	11.027245551771339	11.112403194017254	14	0.7509293611079847	-0.39979993529866187	-1.6898751696308416
Si	12.191692261600457	12.280668778565717	12.373039850837063	14	0.7125088200879479	-0.025590725472497862	0.6850075062520481
Si	13.566389240700202	13.553235338889124	10.953348693954263	14	-0.23163807738703684	0.9851015198985595	0.16038169321285692
Si	15.017153634615628	14.925990240674329	12.283900134097472	14	-0.8819611157597552	0.3316538172302651	0.1436286280573041
Si	13.653064640847397	10.89095742022752	13.766635363804339	14	-0.44621712808542324	0.11026982208104283	-0.8026607714809602
Si	15.201340899925594	12.19738793372461	14.989262793182458	14	-0.25168035757865515	-0.6302208514271407	-0.25820787976544707
Si	10.748500337213992	13.578971943301122	13.701404414004239	14	-0.3579999334458225	-0.4378551222527057	-0.45771074019808117
Si	12.124209154914588	14.84439035350883	14.981918803337564	14	1.3765520477805724	1.1417293993440003	0.9840324543064419
H	7.841705092665481	15.407392039002685	0.781005576042947	1	0.09085412025594461	0.12918184437392405	0.07786541039962054
H	12.890771550929243	10.631734162675647	0.924895553075103	1	-0.10605269513493594	-0.2753057301444318	-0.010623550072319849
H	15.01164237823647	1.4074674937854101	12.268379835558594	1	-0.07312480641033152	0.016034184108039466	0.04828741479663704
H	14.826900233693777	14.854312899788155	9.524779469347854	1	0.13336683250352904	0.11675132148260411	-0.014431357051459152
