222
config_type=divacancy dft_energy=-23019.135052766916 dft_virial="-55.87073517715004 -2.509671977141568 2.98245162746651 -2.509671977141568 -61.93413419256742 -5.566980382576194 2.9824516274665105 -5.566980382576194 -58.47102325393722" pbc="T T T" Lattice="16.249967316 0.0 0.0 0.0 16.249967316 0.0 0.0 0.0 16.249967316" Properties=species:S:1:pos:R:3:Z:I:1:dft_force:R:3
Si	1.2727786900257	1.408579666885512	1.3944584452879079	14	0.845738098456849	-0.797762044514482	0.0487173036061658
Si	2.9097678975049077	2.597508525560652	-0.040527418486104	14	-0.6963561080246496	1.3774393362265556	0.13065765882768904
Si	4.19395406458644	4.34329126422048	1.21972254673896	14	-0.5600669572142402	-1.0379117660638688	-0.12268800366682603
Si	2.555859859329744	-0.084044830958352	2.933460349851636	14	0.748123770982639	2.4068353443595623	-1.0070523315693236
Si	3.973165758663948	1.405979672114952	4.31127882860796	14	-1.142054901277531	1.1689818301849098	-3.2515912805841145
Si	-0.059669879984352	2.580608559552012	2.91841288011702	14	0.005513221137993526	0.4010934583852284	-0.39743348996199757
Si	1.3526310294165238	4.1558641411977355	4.041919370377944	14	-0.07150346739544614	-0.04280401848035724	-0.5031408856524378
Si	0.024082451562312	-0.21627081500864398	5.3502204889564196	14	-0.07007084751105962	1.7605252871705308	0.5734035376203804
Si	1.31088486338172	1.4604170626235518	6.784800103547531	14	0.3148683561476784	-1.4568180992176154	-0.3249961971142737
Si	2.6937083320713717	2.845401776966232	5.4938702000298605	14	-0.8709246461730197	0.12104506736725143	-0.090044993411694
Si	4.105765491962508	4.102287998956884	6.7690538852183275	14	1.3291051273130918	-1.474524530225879	-0.7136833009981915
Si	2.9244741179258877	0.100798547261148	8.054653799456352	14	-1.1689985423694906	-0.7993985530507562	-0.6767912820909828
Si	4.1270854490810995	1.2545787266317798	9.549634542561037	14	1.292872339809969	0.3779591669356	-0.30659788166435803
Si	0.07408360099364399	2.6878258439029796	8.262409631591412	14	-0.8744483460142827	0.7338847326091271	-0.17969172260929708
Si	1.495776991503168	4.177509097662647	9.366871160157984	14	0.08322102278148899	-1.5158105681252207	0.7387839737966692
Si	0.1332497319912	-0.25473448764561596	10.914599297170403	14	-1.573336221447682	-0.042519397121416835	-0.5756226586222001
Si	1.141982703099216	1.184395117793976	12.234714141987611	14	2.0676790418051048	0.6514553531557116	1.211231004137179
Si	2.583549803636208	2.383675205649408	10.828133221081968	14	0.07497008869860179	1.5939426021465408	0.0014981830700502856
Si	3.963432028241664	3.7773536525061475	12.233999143425706	14	0.37636508163710825	0.7369494901507436	0.07618133641492356
Si	2.7928331326989717	-0.046101157275492	13.677694989681095	14	-0.34854700762576607	0.6246613503933846	-0.28401534941643347
Si	4.401937396263924	1.36069101320526	14.901106279000787	14	-1.4250284388182404	-1.007630058934761	0.5053155265322188
Si	0.09605355680487598	2.590878538895724	13.762357319397456	14	-0.5943418480160702	0.19050810558062803	-1.0895357042344622
Si	1.4800795230759118	4.182042838543812	14.716522900258344	14	-0.27769017321833717	-1.4964064362740634	2.4916257698284694
Si	0.051073647274188	5.199534542035152	0.122703503203116	14	-0.8103802580941727	-0.2249434333544353	-1.5364724846989948
Si	1.121621494052268	6.80759880769188	1.28147242253976	14	0.4623564704010567	1.2106489058926975	0.04749911390547964
Si	2.7986993709000476	8.046788815275407	0.09023606850574799	14	-0.8729931004030788	0.4462256127329797	-0.3764890089135393
Si	3.915689624267256	9.535139571715165	1.54439689371264	14	0.5690704538243347	-0.8068547584791856	-0.17033058524916994
Si	2.618942232450456	5.589468757749888	2.486261249315316	14	0.301319145331562	-1.2694436568011838	1.1627314731516298
Si	4.136217930712692	6.541180593546059	3.97319825859858	14	0.9477472162547881	0.8217861955154134	0.538308978442487
Si	-0.36386926813987197	8.301490802986391	2.4423213376928516	14	3.2447837650279583	-1.1943028467093242	1.1396822852880981
Si	1.2733149389471279	9.26023887463039	3.963919527261144	14	-0.6830712068354444	1.6797074765317843	-0.5198170747589181
Si	-0.14571345692257198	5.575900035041028	5.244205702186836	14	1.0509819799588418	-1.39321640980258	1.262121920180998
Si	1.4743757845479961	6.680134064065176	6.582341760757488	14	-1.608341820381498	0.8996212668722563	0.41210216003450645
Si	2.72170702575684	8.048316312203111	5.212193266574316	14	0.2869379248338457	-1.3795034195775706	-0.550739501333807
Si	3.977553249839268	9.354586184867086	6.497679431041128	14	1.1585392859271282	1.8168286370237934	1.5481226771256498
Si	2.7976431230245082	5.389285410384084	7.887506635643976	14	-0.8515783641915654	1.1895041357398	1.8332299749715504
Si	4.0921642693190154	6.670059084329256	9.330292483729668	14	-0.3399266057083736	0.6373348427374583	1.3550928314470203
Si	0.125969746633632	8.078460001574292	8.179356048639335	14	-0.8011898421273033	-0.3683337199485617	-1.0940148268126921
Si	1.46485330370082	9.412777317825684	9.487770916989025	14	-0.20012943879915415	0.8181087435760057	0.0251469526942403
Si	0.14707845417711599	5.196317048506584	10.951470473010408	14	0.18322853508769277	1.7573803111429256	-1.0053034657305588
Si	1.580991820108272	6.637250400318252	12.19389422408982	14	-1.7176261377933284	0.6780364683975305	0.619358959891643
Si	2.70456331023846	8.106263695651968	10.909383057661966	14	1.1165955592868926	-0.5635778015289024	-1.541217202456796
Si	3.976188252584724	9.607841925486948	12.120720621265871	14	0.2823091639259832	-1.1033471677932336	0.7130389820049624
Si	2.921451624005112	5.430300327889667	13.574101448041596	14	0.8674608530857161	0.22088160116966535	-0.3357063934358825
Si	4.279575142374444	6.863791194670608	14.9320949666724	14	-0.2799200928625016	0.12770551569909502	-0.5632900948435778
Si	0.198590850568836	8.203779749515283	13.595518904964083	14	-1.7682769126002456	-2.0907308007739567	-1.8432868534313092
Si	1.347544789646616	9.408113577205992	14.952244926144239	14	2.8476156131350003	1.0039448936793927	0.5387764053896901
Si	0.058142383056648	10.68930975030138	0.032564934501264	14	0.3933616304664791	1.2695297888294086	0.5412523798129926
Si	1.214018808211044	12.195080471703887	1.476602030070288	14	0.8228786581659446	0.08641356425751687	-1.5626095700520244
Si	2.707358304616812	13.60309138973334	0.05151239639172	14	-1.1602904657606814	-0.6735396051925915	-0.21097153282368658
Si	3.8623084816341957	14.97746487541867	1.4876845077798	14	1.725413758697525	-0.4972659099958993	-0.1970574821626412
Si	2.639352191399352	10.980915413786999	2.82725056347426	14	-1.2711904657556925	-1.54069706785053	-0.17493440643542707
Si	3.9839232370271396	12.263557833973511	4.036378131523188	14	0.6734146494740323	1.1854903832245167	-0.03173181052967154
Si	-0.093616061707476	13.685218724548402	2.602204766114976	14	0.23596319075658997	-0.2960157263876926	0.9704824721587295
Si	1.426324631194584	14.678871725987172	4.101768000002772	14	-1.3427600105578665	0.0532090246004645	-0.05509184502640893
Si	-0.054632390116391996	10.673011033083432	5.427814082890319	14	-0.345333897307177	-0.21434250900893273	-1.1604131074844524
Si	1.2910761532235158	12.07795070729016	6.573973027589748	14	0.712805011420829	1.0859623820605204	1.580837678329746
Si	2.785764396916512	13.563620219122775	5.506350174928548	14	-0.38621909988710773	-1.1239941719561508	-0.1618042857864949
Si	4.228468995165624	14.946492437714376	6.569975535630012	14	-0.692352897041179	0.967138235468813	1.2486958653097167
Si	2.689174591190208	10.78992954792205	7.975370208921587	14	-0.2597083768302855	-0.7945103676160907	-0.2222149763886941
Si	3.92282335991898	12.15452055328315	9.347094949934412	14	0.6697773067776188	0.213530811059362	1.0629383910291264
Si	0.225240796967076	13.710422423855519	8.05376005125397	14	0.5550239912393017	-0.9489947165561238	0.7264256989648454
Si	1.67886537325254	14.94160119755226	9.580460730559487	14	-0.8653726013446918	0.20775970805775762	-1.9707324303825373
Si	0.198184601385936	10.86700314290184	10.909691807040973	14	-0.49378591894507884	-1.134242597762261	-0.2068845038067792
Si	1.289061157276332	12.264630331816367	12.338096434052003	14	1.065272697549289	-0.4478446377530769	0.022498457103955764
Si	2.670633378482652	13.465454166566818	10.924658026939008	14	1.2556069964102747	-0.15599615886828036	-0.0029027779064471817
Si	4.1306279419559875	14.905136270895156	12.169584272985084	14	0.5131077754259917	-0.26966138263511075	0.07598516107899625
Si	2.8052156077937638	10.901095574330808	13.538546519554187	14	-1.6842261941319445	-0.06077810155244843	1.264951164475289
Si	4.121349210618552	12.108403146040343	15.005756068515826	14	-0.4161508795821436	0.9257478106934731	0.3637319556465606
Si	-0.058613632108812	13.642497560474638	13.508939079104435	14	-0.5991361881065504	0.16064214618178796	2.1772019577906447
Si	1.0501053878945519	15.232345612770132	15.186228205527323	14	1.7733558740496658	-1.5928969336128365	-0.976933375406981
Si	5.47737648320412	-0.142853462674956	0.127090994378436	14	-0.18627169534462004	0.44199871558665627	-0.18321259423470784
Si	6.645602883518676	1.4421520993603678	1.4335721166175202	14	-0.6698786083272327	0.3806871096802771	-0.4087337549545804
Si	8.0908587266364	2.6449259301887396	0.036724926134159994	14	-0.10082795201386305	0.21028479059267505	-0.04937216413120752
Si	9.391457360707092	3.99562321349466	1.3729922384634718	14	0.2638509417221081	1.4778032037301319	-1.1391330971917146
Si	8.042287574328876	0.25122449470536	2.753248212317196	14	1.7359259799094822	0.3687867487059717	0.14970389281828198
Si	9.562699516283098	1.601986777880544	4.338546273764208	14	0.19386648334980547	-1.688261286821385	-1.8152034413509281
Si	5.309563070731788	2.900017917115308	2.753361962088408	14	-0.17974468737889213	-0.6568032522216196	0.3842920564496567
Si	6.919008583610376	3.9830457387920757	4.119626714083056	14	-0.4097040901024044	-0.1140215789642029	-0.29213001491735285
Si	5.4281390822366395	0.21596206562964	5.33023302915774	14	2.12127733175104	-2.394365226446312	0.48250596568452514
Si	6.798450076092972	1.212215061838968	6.821053780629528	14	-0.4570725918576204	2.038141412555648	-0.3098721842895666
Si	8.209580987847096	2.788851890706552	5.639941156233384	14	-1.2551629665214854	-0.3942874854922644	0.49826375597064876
Si	9.1824502810887	4.204126544126256	7.142884383322907	14	1.993397495111239	-1.3575194406481763	-1.9792882975563941
Si	7.882111646495064	-0.119177260295544	8.221979712909203	14	3.0454179445088885	0.5326494614117772	0.1382295639955251
Si	9.45479973330486	1.378598477187492	9.686784266708075	14	0.7947775054588541	-0.8047803907068901	-1.0515211407444767
Si	5.383727921562012	2.6764183668471477	8.058895040925828	14	0.0755658138012801	-0.551970803671626	0.5096612087443332
Si	6.657107860378404	3.9234083587423556	9.587496966407315	14	0.6895267380732722	-0.7906357118986275	0.48243448895662516
Si	5.784452115574571	0.008644982612112	10.749938378357376	14	-2.220370044784335	0.9082846062484954	1.6428020878769107
Si	6.8684874352249325	1.600605530658684	12.178879254289836	14	-0.9755370081076087	-1.3766636337514668	0.9375417279075243
Si	8.322810760104984	2.8079943522048	11.094892684541424	14	-0.3298054496156106	0.1938184036803187	-2.3566252570045183
Si	9.454832233239493	4.37944744149858	12.12913810433556	14	1.5667979006185453	-1.809092181115468	1.4019167730954294
Si	8.133872390121851	0.18713462361105598	13.552602741282527	14	-0.10034201310835504	0.4935300939657241	0.10702328739329185
Si	9.525015842077297	1.286314912799928	15.058877211671831	14	-0.1401563503224441	1.2043494407478026	-1.066611214978958
Si	5.603654979216756	2.866526734477032	13.713656167351402	14	-0.38730847721125444	-0.17116362337289792	-1.418719203473129
Si	7.050259569621708	4.219824012553512	14.866347598911862	14	0.6396858614422019	-0.09194915401179567	-0.7163461947782689
Si	5.763440907834983	5.561778813443424	-0.109102280559624	14	-0.6498527832096633	0.4502846167018975	1.0582515231410285
Si	7.0751545195498196	7.028078364235368	1.216618802981604	14	-0.5182607847086325	-1.4156367053048036	0.9498385533221966
Si	8.236474683755075	8.413518077662896	-0.19295211191018397	14	0.2562934347440648	-0.15458899292656333	-0.2644050149186
Si	9.302310040011516	9.747607894371864	1.413389657211048	14	1.3236515558185258	-0.6517502589359326	-0.5042240923238159
Si	8.222060962745784	5.413644111390767	2.824601818801752	14	0.03186242267993507	1.3608335954058475	-0.6640815371618948
Si	9.635028120806615	6.854577463202435	4.160219132438424	14	-1.1213695876453438	0.6984430742130138	-0.5952417348781222
Si	5.51093266571166	8.08780373278099	2.6272134658143003	14	-0.8183177744385337	-0.18819231101877068	0.25061412020238977
Si	6.621829181335368	9.413167317041268	4.1476741576704725	14	1.3972641009080895	0.7242544005219804	0.2406829687927858
Si	5.717599750036548	5.229109482550272	5.614314957776052	14	-1.4144964200953178	0.946929090541917	-1.4745818658745184
Si	6.827456267752032	6.744873933852119	6.8934473850223075	14	-0.0729754251912309	1.2249604494362378	0.4847618534924232
Si	8.17933979867202	8.194891017393433	5.588315010070452	14	-0.7407002185917755	-0.6976108074208818	-1.1132569790286804
Si	9.288741317302655	9.692325505562831	6.874727422674276	14	1.737714697880709	-0.14199109107890176	0.7486217940831518
Si	9.55408703360562	6.567538040532612	9.377498638782647	14	1.6534408074706195	3.894757390187669	2.114731811827007
Si	8.075600007326676	7.9771089554243995	10.685198508570432	14	0.6895136254361395	-0.024523459654104393	-0.3615498585613509
Si	5.350724237943216	8.206655993730216	8.118353671335072	14	0.2597325452202949	-0.33791548712695374	-0.7189214138669293
Si	6.696839030466023	9.468725955294671	9.596304448692589	14	-0.686621131950973	0.772151778641551	-0.37485918525109746
Si	5.291899356259296	5.2281507344786275	10.872479381887333	14	-0.626320227545944	1.0721884566394233	-0.12650326685139376
Si	6.605237964705731	6.8616461989848965	12.010594592765338	14	-0.9185080923330001	0.0328404711437194	0.679729541250848
Si	9.222490200555324	9.461348470133208	12.082776947583012	14	2.1707721376060185	-1.4286747803832744	-0.827679168909193
Si	8.131954893978564	5.698961037525096	13.239725870580264	14	-0.36185402032072445	0.8389452382010177	2.6618897634498477
Si	9.681145528049424	7.0354720993641475	14.654675524653646	14	-1.0028801989663194	-1.198536685840012	0.5343610462233997
Si	5.4599890181760005	8.411633081454239	13.526407793969137	14	-0.9984866941952505	-1.659003650941292	-1.004675601811379
Si	6.578019269451431	9.729619180553051	14.921158738668732	14	1.3427294144045565	-0.2939151333411316	0.7873405833203257
Si	5.330428028765532	10.844350688463335	0.28089693502437596	14	0.9988759595407208	0.9685929668589528	-0.03500765581807221
Si	6.877912416268211	12.434881239386101	1.4415021006677278	14	0.45253973317819934	-1.4731932118911064	-0.2644847191835246
Si	8.35963318604304	13.654896285536747	-0.08813982272198399	14	-2.307727976025942	-1.927529119245961	-1.9614638528139352
Si	9.266657611720213	15.002278575510203	1.314004857106392	14	1.086343419868966	1.9077969143559528	1.621411005834343
Si	8.272192111915643	10.926136773964762	3.0544413565192556	14	-2.247906839873653	0.026742580655924202	-1.0645216776852735
Si	9.94717374297966	12.001510861035696	4.085290533144348	14	-1.4032285510297688	2.9760379529973524	-0.27623235650181316
Si	5.451669034910208	13.607836380189612	2.791516885346376	14	-0.20524928082316501	1.2011522712821985	-0.11059892356202178
Si	7.009488401625864	15.041262247101288	4.073980555892412	14	-2.1268409465533082	-0.8098027878392674	0.30284021123896165
Si	5.32909553144562	11.026090322925478	5.28684561642402	14	0.6488595652244902	-2.0110039101225485	1.2746984818545024
Si	6.756541410385007	12.237492886398648	6.71213024971038	14	0.06149749682102586	0.7724358857794272	0.7686476192007211
Si	8.301230803509336	13.599305147348712	5.367916703363544	14	0.3049014663741243	-1.0133052597079237	0.4224490591743783
Si	9.552933285926184	14.982827364632952	6.800627571713316	14	-0.4037540381705176	-0.46330392271153126	0.9323403818448649
Si	7.993976421498408	11.031875311289975	8.421204312203365	14	0.675092038584897	-0.0033925734699353904	-0.9367331152843378
Si	9.702432985233383	12.193552974776184	9.741091657478147	14	-0.3399800846990326	-0.3982601003224252	-0.39073910303992804
Si	5.2540206824457	13.652442540472032	8.14102237574089	14	1.018986631133855	-1.1948960007066822	-0.37682685215260675
Si	6.783922605312467	14.709112915162248	9.5330433259314	14	0.22245897428357622	-1.0524619081811188	-0.2285049284439044
Si	5.3234892927216	10.975617924441984	10.987837899863615	14	1.2114418347734313	0.2549641732935483	-1.9631096173293625
Si	6.977459716046028	12.184485493013856	12.200914209970332	14	-1.0791890622051223	1.054075790990576	-0.13693784068268272
Si	8.352694449999108	13.712421169835388	10.947879230233571	14	-0.5401848568840671	-1.2255129799695375	-0.21420804020068898
Si	9.521603348940936	15.178655720758067	12.269131572762898	14	-0.09263563913227522	-0.5636027412505079	-0.009546771164241833
Si	8.124804908359524	10.7140097006217	13.501659093746866	14	-0.07797956747583512	1.6257834275417866	1.7915531290635458
Si	9.692325505562831	12.094168174671527	14.787291507919525	14	-0.3370012020751091	0.08358303441056583	0.4848346157729833
Si	5.422955342662836	13.41735426331146	13.583867678398512	14	0.5976608878738494	0.7274667395089733	-0.5390872520228959
Si	6.764097645186948	15.01935729115932	14.69598294157092	14	0.1649975985941188	-1.388280916030024	1.7012741650677186
Si	10.809510758537831	-0.145453457445516	-0.034466180677236	14	1.5133546483234155	-0.3585434651105018	0.7549924788454146
Si	12.189587982751078	1.29885988756788	1.4031359278346518	14	-2.54003994011739	0.1915113508765498	-0.5859122221134329
Si	13.427932992034174	2.395017682835976	-0.091471066021764	14	2.7035103021513405	-0.12675703494649238	0.4579323694766779
Si	14.864023853585676	3.772039913193816	1.379833474703508	14	-0.6287923453112664	0.5236701331916919	0.21582552255759418
Si	13.478194140942563	-0.006369987187872	2.605747258989864	14	1.6043314103031312	-0.33181014043373014	0.7510093224834412
Si	14.706724169966796	1.224938786247396	4.16316037652262	14	0.977906795881189	0.3302901029684586	0.09689853175308073
Si	10.694737239384924	2.734317000394056	2.647509674991984	14	1.7723436298851236	-0.5020620498601036	1.0196754302491227
Si	12.091210680620016	4.1977728069057	3.994550715651804	14	-1.159679828247146	-1.9534453466519899	1.053434814434263
Si	10.918320539685768	0.0070199858805119995	5.396744145382128	14	-1.2338045375164832	0.5870913310132527	0.4058690294068714
Si	12.137295587928191	1.4287458763246679	6.615621693820655	14	0.4433734856013395	0.2101171545258014	1.5781878971868015
Si	13.436301725201915	2.8347580483742516	5.417641603350504	14	0.4869313521615641	0.12600292975609295	-0.6580304407909263
Si	14.827412677222727	4.09807925742204	6.852952466470836	14	1.3277622390043784	-0.4625439039788955	-0.9616602384737054
Si	13.767118559821043	0.25450698810319194	7.971762716177436	14	-1.7949999528557363	0.30278750357989864	2.1020842876466665
Si	15.047079735400416	1.316377352334528	9.736509166695036	14	-0.24300210579155934	-0.2096954932532971	-1.265471556192087
Si	10.765993346065583	2.7191720308555443	8.047357564131469	14	-1.4939579726776862	-1.5779361859759589	-0.10462316057693362
Si	12.087505688071968	3.907840890053628	9.318592507262148	14	2.654827194245933	-0.042362302586355795	0.40439784294268266
Si	11.067625239385174	0.036708676166844	11.058915256903799	14	-0.3244056142222357	1.875767112719676	-0.40187250329723323
Si	12.262745335607711	1.721944036607256	12.510118588059179	14	-0.2126872314038214	-1.8493410351286619	-1.2966737190258077
Si	13.515682815540575	2.68685084586402	10.82824697085318	14	0.24803581578734524	0.26978222458515766	0.010147381367028424
Si	15.0035948228628	3.9005446547287437	12.164741782724915	14	-0.9807535236916571	0.19448869083728126	1.3185391699999434
Si	13.396700554852822	0.059117381095608	13.70587243300704	14	1.042463393812127	-0.6339037026877207	-0.8053100384028405
Si	15.137673303187116	0.9610230670682399	14.941454947846415	14	-1.4464855982675362	1.3426957329248626	0.3019927749254408
Si	10.774654578645011	2.891941683359256	13.698868697093843	14	-0.6120197397552803	0.9634810952614342	0.6065013764066466
Si	12.560672236379256	4.0967467601021275	15.043098493407994	14	-2.152747146648588	0.20994617602201154	-1.1169295458679798
Si	10.847470682188007	5.333304272980464	-0.207252083148264	14	-0.3338271725573863	0.7863185689555668	1.1072153957473962
Si	12.210842940000408	6.788651345801424	1.23711001176708	14	-0.8641040179797309	0.06734239054531849	0.2666724727004386
Si	13.693343708206404	8.096204965883363	-0.080161088769828	14	-0.7080875473794213	0.0022746568767350052	0.9761203919047502
Si	14.736022861037544	9.710752968499175	1.325006084979324	14	-1.506679287580715	0.6866195892877809	-1.228559996884445
Si	13.391890564527287	5.331906775791288	2.6854533486748435	14	2.1292048207846523	1.6537645096304259	-1.4935615082373195
Si	14.933232464384519	6.918228585179207	3.872318461500852	14	-2.331212966241239	-1.045360258176338	0.8135743422333926
Si	10.772655832665144	8.305293295338336	2.642780934503028	14	0.619148129255391	-0.8651985375145178	-0.3398661847333501
Si	12.384197591327494	9.451159740626075	3.957127040923056	14	-1.1212243201947552	0.05432874096738898	0.2269823198733127
Si	10.672474784162004	5.332313024974188	5.458169021836608	14	0.6814573240259875	0.4865731971904675	1.563670408107117
Si	12.244707871886952	6.798840075308556	6.715997741931588	14	-1.4929045908280214	-2.197730691108835	1.0095820420938175
Si	13.47130415480058	8.071472515628411	5.451652784942891	14	1.84503520504901	0.6876261770206189	-1.615750460361505
Si	14.751184080543371	9.455985980918927	6.831697509221508	14	0.8466436417506052	0.14313677560955976	0.9374077733203446
Si	13.5817226827128	5.379064180942319	8.211790983402071	14	-0.9454599609619845	1.1083232850298483	0.11091516951639999
Si	14.928308724287772	6.780201362797103	9.563170765335265	14	1.3918498673249216	-1.2095844682901562	-0.05381991922453168
Si	10.864809397314179	8.079288749907407	8.071505015563044	14	-0.30480093615610654	0.986190640112174	0.19228782468323452
Si	12.414796279783523	9.352636188789166	9.508863374565191	14	-0.1596689828181119	-0.80658479242057	0.17720752064897
Si	10.790595796582007	5.143748404239324	10.55874126291732	14	0.9394739135556156	1.7944469081013728	1.5303005463779795
Si	12.100505661924768	6.565685544258588	12.101984408950525	14	-0.2223324759018249	0.610660139261986	-1.4731636441799245
Si	13.778721036484667	7.957592744677884	11.102773918689683	14	-1.7958245063319078	0.08060569444983436	-1.265141940490044
Si	14.898262534720487	9.557515776709296	12.194690472488304	14	1.5076503940601347	0.23839571349998204	1.0213751879762727
Si	13.47715414303434	5.4593552694506755	13.4517229441848	14	2.5188116090415873	-0.7935873408061576	0.8164539801919585
Si	15.013328553285083	6.743508936597576	14.932566215724563	14	0.6318568457423509	-0.7315866786739786	-0.972161661043318
Si	10.987204151138291	8.234492187742525	13.214099672122932	14	-0.7187126401149332	0.3144500373120903	0.6371679780021807
Si	12.2638503333852	9.32077000288249	14.889503802337163	14	-0.6578849162298059	1.1859346702238382	-0.18286472368489182
Si	11.009336606622682	10.846674433789524	0.17159965485696	14	-0.18075204644332615	0.21906023016087245	-0.9427183913591104
Si	12.286974036875867	12.434751239647571	1.480973271278292	14	-2.693013764681836	-0.08626161193309612	0.4354161717460131
Si	13.687802469351647	13.48685537352199	0.171697154660856	14	1.1522254225924407	1.68199498893512	-1.183759772233525
Si	15.207548162645915	15.288586749650806	1.156298924304612	14	0.0228810375755938	0.36797402231427295	-1.0217595682216347
Si	13.5203790560949	11.086670201079528	2.7629981927067955	14	0.5594501490479367	-0.571730776499092	0.7186553044662938
Si	14.968104894244656	12.294774021187548	4.126711699832832	14	-0.0030511306834197253	-0.08727411320817043	0.23589942734465028
Si	10.69296599294748	13.938766964579951	2.771366925874536	14	1.2322541610084339	-2.2733132170946964	0.1825343366512528
Si	12.26493908119537	15.02626352726862	4.144212914632164	14	0.5417298340709441	-1.529650828063578	-0.4262668934642662
Si	11.064862744941456	10.697694733436437	5.467252753566251	14	0.03423246756404757	-0.4106273740228695	1.5152174141278627
Si	12.261266588581956	12.168609274946125	6.898939873975116	14	-0.429995510399545	0.8229704466258737	-0.05947737937098551
Si	13.65501003530796	13.610127625581168	5.626079934112836	14	-0.799518109448143	-0.4904051725596162	-1.0332387821445
Si	14.958858662841852	14.971809886792704	6.916522338611028	14	0.5569065545547143	-0.45394895600417257	-0.6720303663696645
Si	13.61872385829133	11.023360328416391	8.339580726375097	14	1.0110881955903601	-1.0028683718818467	-0.09568548426303487
Si	15.32396292849774	12.290727779325863	9.542224557464941	14	-0.959308448437366	-0.17382060361073892	-1.1305723449177496
Si	10.891914342797268	13.609867626104112	8.301360803247864	14	-0.3828409246069651	-0.26152846228641835	-1.2037565438609765
Si	12.216741678136117	14.994494841165839	9.558165775401937	14	1.8104736360039837	0.12081186811471399	-0.8164884330032484
Si	11.034117806779584	10.502808875415647	10.939087997915616	14	-0.5507423295496592	2.1457899927627997	0.29219686365567665
Si	12.461563685718971	12.320773968893146	12.187670486607791	14	-1.5723769420527345	-1.5870972913421784	-0.02280184753173324
Si	13.721163652251397	13.456110435360118	10.673823531449232	14	-0.42974534185189456	1.1330663170782933	0.1414154205977206
Si	14.757342818156136	14.892201296911619	12.211834188006684	14	-0.24644095915725742	0.3110227539203329	-0.09499000027393481
Si	13.575206445819083	10.823436980527642	13.654181286974843	14	0.2272024064887174	0.6462853745779579	0.19282261458982533
Si	14.973792382805255	12.122768117147686	15.106798365286716	14	0.33057138189048274	0.3795956754718742	-1.691140924779951
Si	10.785867056093052	13.583038930065396	13.309730729777591	14	1.145544405418036	-0.7022261985810796	1.1462373183018157
Si	12.290971528835604	14.641204301748683	14.898587534066808	14	-1.1167655093485542	0.6716773536092082	0.18103229692322229
H	0.304248138057468	0.45238446510685554	0.417031036214166	1	1.6652864039016055	1.6595407548426706	1.747158110611081
H	15.976728990571655	-0.0373927997908476	15.881669931766517	1	-1.3518750931388552	0.5125074223337371	-1.2424424229500526
H	7.738713809915021	5.997448562169042	7.915719828898015	1	-2.3402239190567613	1.5644579376666787	-1.0467609963547546
H	8.357571065190639	5.0672614330796435	8.043798821289263	1	-0.43721723102277693	-2.748705191468904	-0.9787516610893897
H	8.766709492279423	5.851803355109197	8.509266135082232	1	0.016678503101268574	0.3991278483679752	0.1567955155123144
H	1.9693709139508668	14.269856798649988	14.262126689197768	1	0.37565005724757505	-0.39065194256957503	-0.20694055390275845
H	5.805845197546085	2.936981717769013	10.454335222912018	1	0.10754187933636572	-0.00897341467784881	0.060876060665146066
H	14.415893629922149	14.45866191890113	2.02807717087338	1	-1.8479937759409044	-1.9123451996672949	1.9859880837996364
