72
config_type=liquid dft_energy=-6922.103902988051 dft_virial="-20.82285412843781 -7.387368541180947 13.073816065851496 -7.387368541180947 -21.043675453388282 -3.303964472772477 13.073816065851494 -3.303964472772477 -48.62604938287758" pbc="T T T" Lattice="10.914011036500002 0.0 0.0 0.0 10.914011036500002 0.0 0.0 0.0 10.914011036500002" Properties=species:S:1:pos:R:3:Z:I:1:dft_force:R:3
Si	-1.19290140628945	0.9231834515444256	-5.2450881659542805	14	0.6846174695749815	0.3260562638377707	0.34095633338909287
Si	4.240824526419696	1.031635979214126	0.24029378099062051	14	-1.5147224763537341	-2.8172382608879825	-0.5906368852497369
Si	4.456692750710629	3.319332746585928	3.47199793296449	14	-2.4956053266429947	-2.3339100557220736	0.9997899874820334
Si	-1.6596500022764094	3.4982679575293454	1.7317043031393824	14	1.1780609172914165	-0.4058052659949317	-1.2481885862300517
Si	2.2393367844690704	-0.8882367882055526	2.531690398103796	14	0.8931338539284588	-0.22099215869843175	-0.1134903886050603
Si	5.05820755497629	-3.3160694572860145	-5.621632460724567	14	-0.3954228856016418	-0.11953017211262017	0.23632597371726283
Si	-4.7011775119392665	2.4576388332211434	-1.3325789195345772	14	-1.2976836491955621	-0.8286189079037071	0.12482613485106119
Si	3.7149547326480166	-3.773159153505671	-0.9166132169004527	14	-1.223867215454111	-0.9499809925569327	-0.8058635973782686
Si	4.741526610741206	-0.5561998304421131	-4.563748284967658	14	0.08766440699576891	0.13090294227523117	0.029946949216424747
Si	-2.8110672526161227	4.754732564095372	-1.5514266688384752	14	-0.03685422365900256	0.9397148261241136	0.6204498798789819
Si	3.7734538318036566	3.405989994215738	-3.2112185532583593	14	-0.4775257346793984	-1.9227013547863194	-1.0518546131045
Si	2.8351872170067876	-1.2945981611275572	4.742901776131806	14	16.230826356692905	7.004801609581672	-28.073298894715155
Si	-0.8906487846446192	-2.456230925797435	-2.8055011069875078	14	-0.901436210117749	-0.5289578683931085	0.07882674667882392
Si	4.2051357103303415	-1.7901051761956936	0.10200234714712901	14	0.766508459574358	1.7782875111642418	0.3544255828297526
Si	2.230834769871637	2.8281258518661727	2.3787523614493216	14	0.2989969230064043	-1.4264854842031685	10.083228946853813
Si	-2.6903692045634693	1.1537637627125612	-3.1553933868066615	14	0.011829398467469297	-0.23002522301970796	0.29976799749191674
Si	1.7959441721002214	-1.3794327689142718	-4.022555219700733	14	-3.88886570234655	0.682835179367055	-0.6640720240722102
Si	-0.15522997897213953	-2.659035078877678	-5.420399925233579	14	0.4266816127524061	0.07627235354325679	1.4915205648341858
Si	-5.139167688845048	4.215918753234403	2.2450338982301234	14	3.8132893470134563	2.1853809009245677	-3.727616518198675
Si	4.4565726965892285	5.112963148346411	-2.0457440567036334	14	-2.7349153251948213	1.648760624456354	2.256749385290706
Si	-2.0033540378378674	-1.3213265741559457	5.440710899772506	14	-0.39617467679725316	-0.1356283767431313	-0.39874269679101704
Si	4.2130811103649135	0.8131483922744326	-2.222245443185911	14	0.3372652545914883	-0.08723246130198402	-0.5334344198660184
Si	1.8883203615131574	2.339461921717921	5.254266849235977	14	0.9114794617193113	0.0014485607373714276	0.818424732419852
Si	-4.730285179373612	4.215624074936417	-2.9526656318036735	14	1.6918641767065086	-2.154321177325583	-0.902148663401962
Si	1.9160310355348307	-5.44812151326629	-4.657608779881558	14	2.029159770340774	0.6852635883419347	-0.5280680088418054
Si	-4.616059139865603	1.0720505620822856	3.846632275803389	14	-0.3983169217500005	-0.047792991243572565	-1.9352038686266033
Si	3.8848640564642483	0.9895515526573821	3.978047882693885	14	-0.3224770281215926	-0.5853715186646056	0.06047702511945909
Si	-4.526466023266974	-4.796598710431385	-4.046882550301091	14	0.31647015476213064	0.9020206223570185	-1.9626648161089766
Si	-3.8243676932889294	-2.3909760538102014	0.2666838596768775	14	-0.005259195932362896	0.48977576597724387	-0.03567202943279848
Si	-2.844289502211229	4.514908085579321	3.400074600233955	14	-0.9413881014664659	-4.251295907369519	-1.474265877030672
Si	0.7896177844797386	-1.1504349893464287	-1.7680807019240368	14	-0.03745123431434095	-0.42159853753447335	1.4017470801442995
Si	-3.2869399618295962	-1.3464178855288593	-2.986018849531218	14	1.2937341743132829	0.1740180644993263	-0.5031910222061806
Si	-4.427530513221101	-0.32894829264011005	-1.166991544088799	14	-0.8491496981061536	-0.39864808011523556	0.06337646058899007
Si	-2.4419226573285835	0.23175902436007753	-0.1416747772648065	14	-0.38295611012530784	-0.0751420956445197	1.3934786625452353
Si	3.5032884026061355	-3.5663495583750326	1.6272463035090408	14	-0.43790988679602477	-0.23944626713379458	-0.2857698716869025
Si	-4.822410346532708	-4.5474536664901635	-0.9608695316534601	14	1.4756460463665275	0.19064771659951207	1.3023859437155811
Si	-0.29961143097399806	-0.4218156125496886	0.42419486695564557	14	-0.38858503100270797	-2.505864808201981	-0.4094523788915618
Si	-4.90485478590243	-3.0015713152582304	-2.720917521454633	14	-0.8657353843053648	0.9510248613169129	-0.3915783118164244
Si	3.8387741878571093	3.197139479021274	-0.027808900121002005	14	-0.020200917389871443	2.4388625748905186	-1.0281338525313457
Si	-3.6189332635488896	0.34857168448373704	-5.187353047571196	14	-0.8757156438265836	-0.46999779541253683	0.9890736205076562
Si	3.1778871635528882	-2.047959600944043	-2.6032535684701266	14	2.879248693220378	-0.9028202361115847	2.8684287107015987
Si	0.5806799571969826	-4.747038186314639	-1.2620525802167142	14	-0.5859068227922604	-0.011621396047069318	0.08435462311714229
Si	-0.09200511303769501	0.7217544638547816	-2.8622648783883444	14	-0.2220370559005399	-1.4489487171642381	-3.346750459588115
Si	-0.16936362326440704	2.5562141809028116	-1.8095757718848098	14	-1.9288002737162422	3.4973593814790895	-1.0267696240484754
Si	-2.423619860820373	2.396825963725765	-0.9932623164097922	14	1.1899029141749549	0.6685413764502237	0.8754184240515744
Si	0.8261033233747581	0.8813937032856671	1.8658374987779673	14	0.44140916113674633	-0.23764443652543477	-1.0233279424669248
Si	-0.8238550371012391	4.8718508165280525	-2.8158148474170006	14	0.8990970184974781	-0.4201381497126292	0.06485767436392738
Si	-0.15056969625955402	-5.975213676274057	-5.1642262581848515	14	-1.2812676559474805	-0.06840194304775152	0.3804472255539073
Si	0.31282829833919956	4.811856497860413	0.8737975516042631	14	-0.07116948081435891	0.41650620633738805	0.013740501051935363
Si	1.3166881194654332	-3.875096016586581	4.2132229925083875	14	0.7480954888241174	-0.28005019079170107	3.473887503900925
Si	1.2565191766212087	-4.148863069426147	2.1022131498064844	14	-0.9896042966457347	0.039452068474480184	-2.5406294945673
Si	-4.941624089084398	1.7706127524845046	1.3205080233282083	14	2.1241176317982076	1.3321667995283242	1.1595487018758184
Si	0.28165788281895554	1.9163257138328162	3.707205784812101	14	-1.4960878763248968	0.9611462745202077	0.8354176817017747
Si	2.9115198101960686	4.817280761345554	1.585445641239246	14	1.1075966906663743	1.6355736823798466	-0.2668290530144356
Si	-1.7553331370334049	-3.6547857898037917	-0.6844067180878786	14	0.3314949229214799	-0.12940964430528915	0.09958739369689158
Si	2.3424523607419223	0.9111671253932392	-3.7728972172407946	14	-0.8646992288613451	0.3635838599801201	0.02595659375955493
Si	-5.027866604294821	-3.767101877380414	1.7908255009241028	14	0.09923978025760756	-1.0649785631006639	0.5010688318749302
Si	-3.3959709320842313	-0.6741802897466781	2.5221188104247854	14	0.22050416290866762	-0.19469592192608523	-0.716712063065326
Si	-1.4005404662588627	3.2028802488264727	-6.039639083422517	14	-0.39883371391935024	-0.10349315978872854	-0.7139023591714682
Si	-3.700035279561121	-4.437473177275353	4.33417206281488	14	-0.8541206731321279	7.885712171707613	-1.0477567854452479
Si	-0.6686905421953185	-2.8091463866736985	1.3885677961518224	14	0.019132108908285886	0.5916041350711766	-0.20387219681369373
Si	3.679626078922866	3.9568747012830756	-5.540148454326058	14	-1.7328169993563591	1.0088027400712805	2.278646203749747
Si	-2.1168379245953943	-2.6525848983551064	3.350372193973734	14	-0.5211897878893452	0.516602678887669	0.2520899346561547
Si	1.1575836665753363	2.7551438600650973	-0.13823686378830902	14	1.2284316987289696	-0.7048656953027437	0.5303670912190818
H	2.387742232340086	-1.514100751093645	-5.348360903986058	1	-14.257590698170668	-7.97567720374385	25.59007729684665
H	1.7316289964632303	1.3575239831596015	-0.8259559842257653	1	0.11415399088819053	0.29513178037862564	0.5580926054388985
H	2.1853549944814374	2.9092224108728852	1.1562794422564744	1	0.44004930353292	0.17927366088424102	-8.223371062523617
H	0.5841593439154188	0.5980376003494322	-1.3987472942455657	1	0.4475368764462552	-0.19347053313050264	0.7050382164697256
H	-4.297898255733969	-3.0669888060099075	4.986775352742399	1	-0.20459004941907907	1.4504445862395003	0.3030908940076761
H	-2.3536130284278474	-5.1378645559272895	3.7357077246339214	1	2.6819094179146483	2.4196193942324027	-0.3795193136438659
H	4.030742910780314	1.3708958294815212	5.548615544088174	1	0.2470922201348509	-0.31404148867671877	0.05245260541527693
H	-3.6680321249987924	5.221831499836602	4.560180494759826	1	-1.3693066729883951	-6.66075095093978	2.5544407010155394
