72
config_type=liquid dft_energy=-6928.193889332646 dft_virial="-6.130477432138526 -3.5080749947537244 1.739117137582911 -3.508074994753725 -0.41777007423062384 3.984332879376636 1.739117137582911 3.984332879376636 6.278487401294518" pbc="T T T" Lattice="10.914011036500002 0.0 0.0 0.0 10.914011036500002 0.0 0.0 0.0 10.914011036500002" Properties=species:S:1:pos:R:3:Z:I:1:dft_force:R:3
Si	-0.507479685175177	1.5283435354962775	-5.657692353189162	14	-0.010437916268205158	0.9876469141655061	1.8263440407031295
Si	4.047853897283339	0.9188396751518987	1.0708936769124167	14	-0.46358725851781163	-0.452620722995784	-0.32131771673273785
Si	4.59155718508866	4.154047224668485	4.424911150572342	14	-0.29571490706523523	0.4401164093817759	-0.05712713199783815
Si	-1.4062812360640615	2.7875039027883197	1.7781106780665803	14	1.3664311487983416	1.3494536261483399	-2.361196682263742
Si	4.223624045026172	-1.2509093749484477	3.2306345788922926	14	-0.05136219964900213	-0.06419252941760507	-0.43610625641394085
Si	4.9054768845315095	-3.9159035038520544	-6.125248585992822	14	0.7270144820831593	-0.25689610183110756	0.829522651423739
Si	-4.623426097315241	3.124561305628549	-1.3841585356930761	14	0.09716258426945994	-0.1356836555075145	-0.04808789702379355
Si	3.381346157295321	-3.4966417698849073	0.184184850251974	14	-0.026147883995373947	0.1892801456797253	-0.3411985315102508
Si	4.402722966135137	0.23448752711920254	-4.632015424000966	14	0.5517864554201714	1.1637861405539545	-0.28427863060121655
Si	-2.6291306886376677	5.158660112556237	-2.1303931263027276	14	-0.5715952792487202	0.459269601353687	-0.3844344956843929
Si	4.291585591750458	3.4819405970187414	-2.7482134630569193	14	0.049902840269286076	0.07883214599999622	-0.018800950543050813
Si	3.400707612874072	-1.7358188853001426	5.555155219501246	14	-0.33636948149794865	-1.566666774247218	-0.8124044893127251
Si	-1.6542584808243783	-1.6890632620197767	-3.4950592382846146	14	1.3740930426523827	0.3802397373545714	-0.9375828655926467
Si	5.111773521143433	-1.5802505719858717	0.6580712094568041	14	-1.7272292161640812	-0.29696626402455134	1.0048645780524097
Si	2.257224848557894	2.5682414210650344	2.17388546028318	14	0.5579848761259845	0.2629615963918689	-0.9928258916118804
Si	-4.0221514012923825	1.5495822009733067	-3.280118704931783	14	-0.14753285148594894	0.2132490179162738	0.3918477636539759
Si	1.2558315939259093	-2.4333660726759674	-3.9872920500418014	14	2.298158322024351	0.39999379663980106	0.09123130140641034
Si	-0.5123800761305656	-3.153538004930456	-5.1558006416646736	14	-0.8288683051197614	-0.3871989481246161	-0.4033953689783569
Si	-5.590527529270542	5.829653511080257	0.9459828205996742	14	-0.6188928184971003	-1.2613223064264318	1.2404120210787317
Si	2.066513419706093	4.268469716375151	-1.7132050544325148	14	1.1021078950289225	0.7645348791306122	-0.9965851047004688
Si	-1.4696370701309442	-0.29528948260354404	4.517167285863876	14	-0.3027021428832697	-1.9702323503977683	1.1908768488702268
Si	4.275411027394364	0.06911843189415451	-2.160843217094562	14	0.361082945835212	2.719104570139103	2.8257097958073385
Si	1.8929042461484873	1.3991325588351542	4.97332929114543	14	1.3899991857154788	-0.21731522098008796	0.7761848144467351
Si	-4.366182857184935	3.9359634561371415	-3.8288315238028576	14	-0.02360994593385578	0.7838541645062049	-0.13104512439943533
Si	2.368176684754953	-5.34160076555005	-3.9177370577061867	14	1.32327566022072	0.33487361242268654	-0.7090159735105267
Si	-3.518513448002053	1.4463465705790532	4.202898338067858	14	-1.441967137777908	-2.326459506725349	-0.5872859636859878
Si	3.995150137988081	1.4917270284688202	3.446721083403956	14	-0.008862342928018413	-0.9718911807636385	0.9125549550747292
Si	-4.655851624104681	-4.254630750380869	-4.064126687738761	14	0.8563917304614147	-0.8223394973803094	-1.2401291994935155
Si	-3.3503612799626974	-2.538588053078864	1.0600560639531722	14	1.2388727003235591	2.6346183064295685	-2.028272739005323
Si	-3.1545311799347777	4.9509664825316415	2.6504675802140256	14	-0.40159405259106123	-0.6025107638392447	-0.2856431161946192
Si	-0.10284272599693953	-3.0144716763033736	-2.1760136924352973	14	-0.07197835054807748	0.544486573195207	-0.5794170958536746
Si	-3.876754946264129	-1.6292435675287202	-3.370366662192602	14	-1.6385816184938877	-0.0628473271141036	0.33012503800690507
Si	-4.101910993947124	-0.5327674487467475	-0.37232057249916106	14	1.17735437754944	0.7656137149229464	-0.9732260986458595
Si	-2.112286781993174	1.0084327917505271	0.40493163747622307	14	-0.07797828192317505	-1.156400383411297	-0.18495503231017218
Si	3.532396070040481	-3.910566552455206	2.9539862271390906	14	-0.43969423388820755	2.0532618258329065	-0.2046129322564284
Si	-4.418231775818004	-4.149899900474614	-0.6524068377288605	14	1.0743260736025941	0.37025202162792414	-1.3157114683688447
Si	-0.31541491895485	-0.852296949862358	-0.18640039449238352	14	-1.5235498522493987	-0.4210465212222375	0.19207622271538635
Si	-5.829238778660869	-3.366055627833185	-2.3433800516800245	14	2.3948977023581146	-1.098365651235447	0.25579155498557193
Si	3.590196672489785	4.555879283010342	-0.06373782445316001	14	0.850095093532372	0.10973811750083622	1.5046026058136313
Si	-4.324545905080687	-0.417591890278563	-5.565283421743117	14	0.2828871484019525	-0.07798342413381534	0.8132133590464439
Si	3.354388550035166	-2.1744639028681143	-2.2646682040847868	14	-3.1586401668290573	0.6501674865008494	0.9750014468694218
Si	1.0273904289209277	-4.5787987061869915	-1.0665062444757436	14	1.0611787265480168	-1.1010560558424498	1.330288349981424
Si	0.024665664942490003	0.4287787515909756	-2.903661722249789	14	-0.7110342911868429	-0.6051510318925047	0.16217503917366022
Si	0.22176179025064355	2.73704842976658	-2.9679343332437376	14	-0.9351104907167924	-2.1127456329671923	0.39408385395090867
Si	-2.0865842860022163	3.0589244432550378	-1.2014798189641391	14	0.7484991523593807	-0.6855574656800276	-0.12500251267602333
Si	1.6382694546559056	0.25543151429824607	-0.32206155167607853	14	1.7511255832306014	0.13211830376006517	-0.3122142041256895
Si	0.09944846856458801	5.403668746314626	-3.465493182386736	14	-3.5394591742122583	8.609272373793154	-3.3858171193751048
Si	-0.015836230013961502	-6.243054421120804	-6.099928080388143	14	-0.7351677141638808	-0.4544289813674442	0.2716169653416154
Si	-0.24965800245993752	4.626558418482716	0.33400147975000954	14	0.1843248543962039	-0.6938755056117708	0.24861302893171847
Si	1.4412606414360443	-4.442853784716347	4.511295547926239	14	0.9200391855511483	0.9337043532172034	1.2050570089319077
Si	0.6331654362715111	-4.795103490919385	2.44564433509203	14	-1.0542262006518046	-0.3589795245727989	-1.8130359995660434
Si	-5.613599748601703	3.1909075787194325	2.2958058775719214	14	0.6402669312445554	0.6143383625329899	0.04722220586249969
Si	0.4150489257070586	2.6841918743168103	3.529591169204101	14	-0.4101884863447202	0.8476695127733443	-0.9833171728063766
Si	2.912960459652887	4.983970451906018	2.3528097572155606	14	-0.559281484538935	-2.377388218017374	-0.7301106071096817
Si	-2.2270476080419717	-3.367288911080309	-1.2421890801302842	14	-0.9048992318734564	-0.1316411066126457	-0.32596447537784146
Si	2.1007615863386295	-0.22120517568778206	-3.720368082122121	14	-0.281160136958409	1.096092279911372	-0.2264336459979931
Si	-4.900118105112588	-3.3506232162275733	2.399892800827022	14	-1.5059542358804332	-0.38385933942427586	2.306508243662064
Si	-2.640481260115628	-0.23727059993351002	2.6823801484847514	14	-0.9358959633920975	0.03747977358339459	-2.389176221689189
Si	-2.3931806840395744	3.2744325051817667	-6.384871080529085	14	0.8038774185184542	2.59754759570261	1.2455159222497576
Si	-3.332058483454487	-4.756020417397679	4.697182983899907	14	-0.27051910336991214	0.546504376650459	-0.07234396172460254
Si	-0.8711454469223936	-3.0982039689754015	1.1153791858971907	14	0.46804324114816026	1.5471906514470963	1.7494808471573025
Si	3.035524803592782	3.2385799789268646	-4.769870297402997	14	0.17320071011805122	0.04170821339291012	-0.7401150350209099
Si	-1.6220839762887762	-3.265712210363603	3.7036587312252394	14	-0.11819448289880324	-0.0614620155676078	-0.19507156041335885
Si	1.3712909166810427	2.5161051903436737	-0.5596159158965376	14	-1.2043931495382452	0.07065680241352136	1.443757398412327
H	-1.8803247570278174	2.5952339531605064	-7.797921186237984	1	-1.024698855823628	-0.711087255956438	1.9022510401803934
H	-0.9145253665891702	-3.9337064386547933	-0.12057035412352646	1	-0.1967288949027263	-1.1732668343114685	-0.729353159482366
H	-4.604217437891	-1.5207233729905936	-6.610848953243129	1	0.06965587111238772	0.06859837549421083	-0.10950980334840706
H	0.35229663645049447	4.265796875072312	-3.0105011590882946	1	0.03987347263645245	-5.606242700034355	3.6328437763242922
H	1.4112951327342298	-6.740416818065145	-3.7497769762610735	1	1.405595767698029	-0.6354929028861043	-1.1374842473499038
H	-2.9104404145045595	-3.712699897967876	1.8985009510080044	1	0.5031871655482004	-1.5821877657333558	0.6296233265507382
H	-0.7144311624492902	-1.2565726552752876	-1.8261836224790517	1	-0.00026148141105905966	0.31735101544481337	0.5708622571219459
H	4.044139859327618	-0.8610368899003873	-3.209759349982779	1	0.7113777908576148	-2.2922049276555483	-2.39065152192189
