72
config_type=liquid dft_energy=-6933.172677913033 dft_virial="-2.022107578198374 2.7939995405039193 -9.134621621469002 2.7939995405039193 10.044796725332954 -1.5755210390671193 -9.134621621469002 -1.5755210390671193 -11.267809100263474" pbc="T T T" Lattice="10.727476143999999 0.0 0.0 0.0 10.727476143999999 0.0 0.0 0.0 10.727476143999999" Properties=species:S:1:pos:R:3:Z:I:1:dft_force:R:3
Si	32.855706289749726	27.94913034110243	-7.8392748318463035	14	-1.304396805186469	1.2283183129843513	-0.13952077308730348
Si	28.993096137008074	2.4187455011399677	12.693457787006302	14	-0.5047529686881705	0.0746906095503017	-0.007305795767200766
Si	7.028041630884735	-8.639179817999807	7.885349341884782	14	-0.3530682963312465	-0.6162942023500265	0.42082849149108903
Si	30.99375971038793	4.89945290448768	42.269903349248956	14	-1.3995611264011096	1.3193953480715526	2.2797075560259046
Si	21.427232489643902	8.461050076628686	-4.486970719274735	14	0.3622461138820471	0.6762114978412894	0.028462393004571252
Si	23.732095104039164	15.090523058859246	0.49361408729001593	14	0.367350786384669	-0.18458787847045507	-1.6764123479534827
Si	0.20575299244191997	-6.094858481118176	1.4838245002380799	14	-1.1329655297497434	0.24911413735861535	-1.2593890923362128
Si	17.674793516901133	6.212495984513279	8.60765176561259	14	-0.7112384369492627	-0.32005556113107714	-0.12950168987575048
Si	26.633094295232656	9.850912613321471	0.6203699454075199	14	0.44306983806302996	-0.7222990749260078	-1.232463191870962
Si	27.904954594341437	5.3514551118151195	6.246716633412639	14	-0.2552341393521639	0.4501802298258995	-0.07190970203602953
Si	18.282472858030303	-12.560243988250113	5.9286684206953275	14	0.032583617722236606	0.032795219690084795	-0.34020788463039775
Si	11.394564248014637	12.927252402088639	16.568951638596896	14	-0.5776270923297876	-0.4261751050043369	-0.05655763216942535
Si	7.7366557950527985	20.198539554538574	-2.3665241472709755	14	1.8253518511600844	0.052384214013760984	0.7955393239652139
Si	28.373530752311357	25.439212020214605	14.763013212182926	14	-0.5588464535187658	0.6722746213750787	-1.4889129498184919
Si	7.901054366959599	-3.8571176849559197	-9.417544032056158	14	0.62882217013298	-1.6817805587514199	0.29750285370486623
Si	23.943801845741003	-12.643961212077887	21.891496202203932	14	0.7095857304494716	0.6821872608263775	-0.3850461616400562
Si	14.391220343984173	32.77260053206216	-3.7332260629688636	14	-0.1348570451470869	-0.08618113633657548	0.6604130840911075
Si	-0.688178322113744	25.489502428377676	37.22967377532356	14	-0.3104226579386104	0.09557749783958863	-0.6665130314631588
Si	37.577115272675435	2.066605369237024	3.535754682110112	14	-0.09738781309550491	-0.3654391695791389	-0.14365742443688975
Si	18.25183518616304	-4.189701627848351	15.1504145581712	14	-0.5994408640869878	-0.07872621646080612	0.3338644535845285
Si	13.406759858249295	12.072068731365102	-9.860502976994207	14	-1.7794455370004365	0.7469822002204932	-0.7755687776120277
Si	11.746768744774446	-1.1347416990361758	-17.152794527734095	14	-0.9836033368285091	0.20550356313932766	0.9366410697138764
Si	32.82221510922815	22.02600802557355	7.624424939634271	14	-0.8798306978914805	0.32068291082919326	-0.43880257456318017
Si	19.64152608323752	-20.792487726203422	-3.577259287311248	14	1.0668444142314952	-0.6359132786059485	2.525775447801208
Si	22.4951527397791	14.25293244901187	-7.445222450648751	14	0.13407800023508204	-0.24633451539700327	0.4900981825843905
Si	54.365701257844584	-12.274925305248141	-8.829689066841103	14	-1.1938842707632038	-0.2133212659757699	-0.8596776030605638
Si	12.61398864373155	31.677453947473484	9.198660608813983	14	1.452854483256075	0.6003543778072365	0.9282348408696522
Si	6.5130905935443035	-6.0108837978629435	33.61974932315383	14	0.01153552112937637	0.3355696106328507	-0.09592896793685289
Si	10.323179023084926	0.977637810907296	11.219212922964815	14	0.6720221388326402	0.0384297969991893	0.5456991064641887
Si	21.811512140074267	30.022751479737632	19.37916419918371	14	-1.4081874418607385	-0.7629261385317956	-0.0324638042143177
Si	32.96030990962986	26.890457175403355	-2.0301104953951357	14	0.7301931395904584	1.4779520707281686	0.5821614936724007
Si	30.718567764865902	19.208972790159148	-8.516457490912448	14	0.044917981274582984	-0.06420847027058998	0.4304778497576047
Si	24.944857737070656	25.55005903121056	2.3783565534578077	14	0.5395935026604332	-0.21007910216706321	0.07959190762209997
Si	26.455833479429195	15.394368093161903	9.532242206987807	14	0.5058906827923361	-0.09413279376019744	0.40095230470315224
Si	1.036724749508448	3.2483977786407836	-13.646229308211806	14	1.0880763448547461	-0.7191592411090428	1.1741749487105448
Si	7.406635718958784	3.6476208033397435	20.601581560744798	14	-0.3374701716855041	0.41979722114717766	-0.033662453514570735
Si	4.923890095143712	7.831969420592239	29.982770176148943	14	0.6852926418320524	-0.039370307325299475	0.23306478372918704
Si	1.780514307952688	26.6949596501551	-14.851643620084655	14	0.4796240137311712	0.40582120684791667	-0.8374015465668009
Si	9.62343648168795	20.168212979479485	10.676134443174815	14	0.004966604146930044	-0.03211104856439339	-0.35587362934606
Si	26.161171164705806	-12.373017347108878	25.896921244850652	14	0.23429994272498617	-0.5828742040671459	-0.8658641966819043
Si	19.276684619580077	10.747987078387325	3.014066789751248	14	0.59725645300699	-1.0328382039356208	-1.110492012367393
Si	6.140300070064159	1.6805771401951837	-0.031957151432976	14	-0.23151723543698988	-0.2165035230305172	-0.38045673864359186
Si	18.239080217027823	-0.26330590195448	22.119261975693345	14	0.47298336291029275	0.28344225004057244	0.2788494846071919
Si	27.173748365414106	-0.6211637786421759	-3.043245524862928	14	-1.458948774196422	0.25599570074799166	0.0012441578644196555
Si	29.317119553937594	-7.470732388919183	16.676129852751597	14	-0.15995848927716058	-0.3148570432842697	0.3237407263864454
Si	4.548943348958623	-4.1634085838194075	-5.806461012462879	14	0.120169863116273	0.002687833501682802	0.3586118565120177
Si	45.51234737862982	19.257428799901597	27.072148438854285	14	0.12416176123633492	-1.6298745703272064	0.49802541450747106
Si	34.547053815993486	27.116474370281296	-17.312816289374144	14	1.4227175293564913	-0.10582669497729494	1.0538950422865694
Si	6.037133931987311	-24.458398876368687	-7.7436286545463995	14	0.2405461859897539	0.1887895787846411	0.09080989724443805
Si	13.564711216993551	-23.65863334740505	-7.817873516939023	14	0.8451452015700228	-0.3569632637807388	0.23774805206983676
Si	3.517850524425776	14.063571040117981	-16.904968373855407	14	-0.036600712674435966	-0.3761483374586197	0.6379503653511017
Si	14.368284999988303	12.548551039253152	-1.2222886318473598	14	0.4987332398021079	0.39887845115192083	-0.6281778511397509
Si	10.938099410611294	11.563983278756831	24.63051050362302	14	-1.704237106838657	-0.6104143415933799	-1.9494490776528839
Si	-2.6845187226075677	11.478742753316608	-5.584123341902336	14	-0.9957613225558933	-0.2512882640173326	-0.5806064891747753
Si	34.686339366247175	18.328021721737727	-2.425192714302512	14	-0.051981836031157816	-0.7928118954416009	-0.608419163864945
Si	19.508923750621534	7.420474163184543	-3.1874228042382873	14	-0.027060112162962488	-0.22821439354272766	0.3790652564443277
Si	3.5452163160691197	6.81414648404952	-10.983176265368382	14	0.3404354274512309	-1.1271260353466233	0.17383423046893573
Si	-6.546839233493327	-21.140218865411182	34.37900790219773	14	0.08369333482880019	0.36741480690714073	2.1906033300508527
Si	13.08095568027987	-9.59286317467755	-16.782911150288975	14	3.0221926359309266	-1.3103697399557048	0.9928590588705101
Si	30.690536869701628	-7.384537118102143	-2.667247486015728	14	-2.3555950151027347	-2.821546404962423	-2.125616843310386
Si	5.6820866540493435	21.68058329373675	-5.381416952685311	14	0.2645407692795038	0.9896168950618035	0.014921666836011392
Si	6.151220640778751	7.681344928054335	0.22261658494028796	14	-1.7474856694288676	0.7218298482050808	-1.256583759321399
Si	15.258000416419375	16.9343938409184	12.751547070326064	14	-0.1478192726186134	0.07792583137464403	-0.31434282222024007
Si	31.21243931158337	-3.972309323790191	-16.480535780218045	14	0.7372233128673393	-0.4945377101406901	-0.8185414606013866
H	55.33822420812642	-11.302402354966306	-7.8571661165592666	1	1.190479613098264	0.7377341914944527	-0.5671513808133762
H	18.815777534305504	12.210238624099821	3.532162050349486	1	-0.2652177413102988	1.323309855921478	-0.11267200578165718
H	11.847089956177907	12.472973824323441	25.539501049189635	1	-0.9122158262830017	1.243905381877217	-0.5635492622598488
H	0.4980970995705935	26.675777850062016	37.22967377532356	1	0.2530466429457819	0.1644926335092417	0.6816419293879742
H	-0.688178322113744	25.489502428377676	38.907320169036204	1	0.013476705646088171	0.5618024533053403	0.21725685688932056
H	31.940184856706644	5.845878050806393	43.216328495567666	1	0.16694675353732308	0.6337584352371323	0.16712904490452155
H	31.506461195980968	-6.5686127918228046	-1.8513231597363886	1	2.0957637394381465	0.7956660794574971	0.8780972586846366
H	46.40841238819053	20.153493809462304	27.968213448414993	1	0.10790774762342278	0.9198183276041476	0.5892263768711036
