72
config_type=liquid dft_energy=-6934.09428435732 dft_virial="-11.89689808530465 2.012458129008091 -17.104700467785257 2.012458129008091 -17.782681616822384 -1.7868622889235541 -17.104700467785253 -1.7868622889235541 -8.659776824409075" pbc="T T T" Lattice="10.914011036500002 0.0 0.0 0.0 10.914011036500002 0.0 0.0 0.0 10.914011036500002" Properties=species:S:1:pos:R:3:Z:I:1:dft_force:R:3
Si	-1.7364628119512961	-4.937705959122295	1.1898127411661208	14	-0.7559147343237519	0.8769996538234655	0.7140221726793871
Si	-4.8247132028614095	2.3272382293570413	-1.0427246144272102	14	-1.3594868504391535	-0.3625541322994008	-1.6206473875542586
Si	-3.3243204496296084	-3.844645925794746	-3.937775181969201	14	-0.39420880966946786	-0.030531361455694413	-0.4313412269241105
Si	2.112963450677437	-2.5683069051312533	-4.401937157340509	14	-0.3683522319068667	0.2667061541801326	0.7258369158465314
Si	-3.304991736083967	-0.6957027195106561	1.4449277491443082	14	-1.2468179299838806	-0.9066928349447916	-0.2331791979159336
Si	1.5221662052496188	-0.9882309573219656	-2.1728049731905665	14	-0.9311484174184441	0.7471953448515336	-2.1701399028077937
Si	-0.08480186575360502	3.0683323207685014	-3.129941913069543	14	0.680719931020169	-1.3198080104754364	0.23599430113096373
Si	-5.089268830386169	4.876674809406186	3.040970895099995	14	-0.4413669950094959	-0.3797455709120389	0.6578314372391468
Si	0.13584669537131552	-3.878708554239662	1.9522546381649744	14	0.697386864147497	-2.177828793267697	-0.512694598801044
Si	3.7020980276470197	-0.6477356410052386	4.811965637970778	14	-1.4061264438361079	-0.9558225438443092	-2.8238159196285175
Si	0.42157550430688556	2.253361288650973	5.6641971037669165	14	3.407164749737763	3.981507769242125	-1.067653026854682
Si	2.513769591981863	-1.0269866105125771	3.017047382907988	14	-1.14474607721613	-0.7176392036437714	-2.079045641314947
Si	5.121334194811407	3.9047057285286053	-3.750076020163474	14	1.2578150616592179	0.35954671040642355	0.07586791867639751
Si	-0.05417715078518601	5.191129295389824	-2.4525419900670977	14	3.7252133060559323	-0.7914394394217059	2.591709901073214
Si	3.752160596271445	0.8194021205983472	-4.519295518015994	14	-0.576263378067981	3.7894377171795073	1.7723390018955474
Si	2.3194674534990534	-4.404229099658174	-2.465638803310898	14	-0.615712104105545	-1.0211671855558726	-0.6567063215510501
Si	-5.364236424439751	-2.9114215840967406	-2.05776038285482	14	-0.05596216417727906	-0.18378312250524872	-0.03277027996847936
Si	-2.141394449427519	3.310383257535998	4.224191573600071	14	0.4015796544012684	-0.3565058641442844	-1.1813853564703682
Si	-4.971026434816729	2.3565096069569345	2.2954129731746074	14	-0.70216243516914	0.8315101158362136	-0.16608157659709322
Si	-5.51379111767291	-0.7370777353500276	3.2260288662348895	14	-0.7364594374767233	0.0012680691438970327	-0.6703853731858339
Si	-1.3724259738288387	3.7839967664649157	1.7041573392832563	14	-0.5486607626824673	-1.6035143130323881	0.8542425435243028
Si	-0.21470042511002801	-2.3015903034212664	0.3795565618163606	14	1.9317485601868565	-0.17687893338905508	-0.7439814632013485
Si	-2.7605026394840184	1.5117324106987247	2.3967495656485096	14	-1.008326314255457	1.7747067327848718	0.17179791505537845
Si	-1.7077807909473743	4.840953251283722	-0.8554401850408702	14	-0.537579298752629	-0.2904788510807537	-0.32693918140470957
Si	-0.1524359921467955	1.0810873632205078	3.0921248648280706	14	0.8908851652154574	1.0314410653046524	-0.7531780498209862
Si	-1.2155479791901878	-4.5641193613428985	-3.686763842140737	14	-1.1167832499752635	2.299916443842268	-2.4831236387558038
Si	1.9854441457269707	-2.721965266514137	-0.9323075647709397	14	-0.6999543699201969	-0.8088226824912269	1.6535071419878793
Si	-3.7216995914685738	-4.734203309335715	-1.3625706218628792	14	0.434059142358039	0.7816941789267485	0.2844861188005525
Si	-5.221579386181659	4.382935864125963	-0.07989056078718001	14	-0.7167362314553354	0.9065285413148343	0.7574100891779498
Si	3.882408403981036	-3.8323458353566107	-5.0792061122105165	14	0.9241904922010594	-1.308465836466135	-0.8642282023666938
Si	-3.6872549726373793	-3.612199318739369	1.059663159555858	14	0.0913038065764385	0.6218395623045219	-0.8922365381717271
Si	1.1075429259729836	1.7585745983112453	-1.2395260614373782	14	-0.9951676543374711	-0.03811226549215102	-0.7701825690768496
Si	-3.520565282076915	-1.5184336134751357	3.907423317276694	14	1.4840512467686235	0.015573956255732957	-1.2188481607586497
Si	5.050535005217631	0.30018987355893256	-0.7647774953606645	14	-0.24602495431645746	0.5968666734404556	0.47728996432154086
Si	-2.145672741753827	3.6864473358206786	-4.433042088794534	14	0.5776954837313035	0.4430484978888727	0.9570828996722457
Si	2.9466629257335986	3.1940726419200174	-3.9856331203642528	14	-0.679241545461084	-0.5752665605353596	-0.8708652536401241
Si	1.4893150320297537	3.1912677410836374	0.5311521751133456	14	0.2205650981047551	1.7607127207483695	-1.447700188420774
Si	-1.0881596423721596	0.8343652297293886	-0.45021386926666157	14	0.3782754128899782	0.788716381777137	1.5315840421537974
Si	4.7197313307013165	-5.175980648071162	-2.0653783625582967	14	-0.4852760745564528	-1.4638364454100234	-1.1557833181344614
Si	-2.866423116593251	5.666554530150801	3.7179669996940907	14	-1.508220922330676	-3.478838167194871	-1.4644092876753525
Si	2.9091732978232216	3.0835027961092356	4.215842355157148	14	-0.3995623651670802	0.033018391631873645	0.8043528158921495
Si	-1.3305161714486788	-2.9061392027550745	-1.418002883917263	14	-1.239463283215597	-0.23880837590386583	-1.9390651545964015
Si	-4.98686266483069	-5.112799438180864	-5.057268950027152	14	-0.32963807065926903	-0.1251333819368189	-0.42177517246996754
Si	-3.7961331467375037	2.356727887177664	-3.4675341024505615	14	-1.4656015092123051	-0.30623175626676896	0.5389808082626418
Si	-3.612854159401559	-1.699115066184393	-3.0098441356238976	14	0.6638863902680956	1.0485602558577944	0.23791054592607008
Si	3.4664208733248385	5.407215799901488	3.9758214244424397	14	-0.000839208776496333	0.6184351617501138	-0.8423239277022243
Si	-2.866357632527032	2.4964708844890104	-0.15422588995678152	14	3.509726912290066	0.2944041575730238	1.472352460451418
Si	4.048268629702727	0.7134270734339321	1.8600858149617319	14	0.5019674331843221	0.5999725686671946	-0.8450678112998865
Si	0.1415656371544415	-3.378879590801072	-5.5282521822962725	14	-0.10426577693743302	0.23226645552728106	1.1927254735954134
Si	-0.9568640896030647	-0.21084777921414352	4.828664074856623	14	1.0895009943126404	-1.1777192173943691	0.4627002271823606
Si	4.072519562225829	-2.626631380110309	1.2728465371318127	14	-0.6696567219381038	-1.0996614883168012	4.1501869335441635
Si	-1.0735239535722132	-0.7788565695977495	1.7686373164868983	14	1.7241909410072624	-0.14304884380761068	-1.2553028346509014
Si	0.31304657855992957	-2.195724396367216	3.2938376168046637	14	0.09886131355448177	1.9721959035307657	1.6659410073161154
Si	2.4232378704340953	-4.346472153253016	1.7721625420516878	14	1.4833243952946178	-1.3660871349065058	-0.2825115099146788
Si	-5.0564831412325235	0.17928445929658554	-3.473569550553746	14	0.5448655541193967	0.7496386662372704	0.08540080587191053
Si	-1.4663628668199942	-0.4035237300525146	-2.2374159185266462	14	-2.020317739144785	-1.8377888018147048	-0.3406598849456798
Si	-5.271576470739865	-3.5838010620223963	2.8560220640754665	14	0.2588156890631301	0.4265355739702217	0.027503627830688028
Si	2.009007495554774	1.944767626593935	2.254070699368345	14	0.5405777217769858	-0.9211434752861519	1.9077879154873323
Si	3.121330758361745	0.6156593625689651	-2.0741859694647524	14	-0.1661000885553983	0.9954155088903335	-0.614479516215066
Si	-2.0881122475473264	-3.4990755943460465	4.587147924629914	14	0.4681823379459803	2.714503320058166	1.300686957320027
Si	-2.99065730422173	0.48158073698556253	5.496023107705488	14	-1.652895733142748	0.41662087763466665	-0.022321565057929576
Si	4.107531709630922	-1.7459252595199417	-0.6389062060767101	14	0.2044658650321159	0.3785548920382783	-2.2683802944274603
Si	3.3246260419386306	4.728975498049232	-0.06129308598098401	14	-1.3464724295296282	0.6695057980558112	0.7448191293146528
Si	-0.25356521841100454	-1.0983642426912872	-3.933857052007097	14	1.3093726653125513	-0.9046768312632634	-1.0891780634844295
H	0.04376300145415771	4.14236923285943	0.85346365764216	1	0.9330299522917285	-0.5006577121342386	-0.21577152934587102
H	4.480010535290112	-4.081652406661173	-1.0597668426607048	1	-0.15503533681014103	0.7060224355862783	1.3523587180495753
H	-3.640721995182158	-1.9770108893990672	5.279979167836867	1	-0.6016378735830544	-0.4358350048026653	1.6189149767895432
H	4.22756727721366	-0.5821326120659407	-4.83426405391945	1	2.3347384658562254	-2.9098271059034313	3.347107586117084
H	-0.5404956599616932	1.3342007415746011	5.705577576611806	1	-3.319385928555247	-3.179752541054921	0.5980262419398423
H	-5.508776129601639	5.870562498648369	0.6168740919973275	1	0.441160021031224	-0.4210488352170257	0.21006624664046245
H	-3.571526073809644	4.141790790274495	-0.09285094889302375	1	0.012889722301498365	0.35291171601724947	0.5265883377300601
H	-1.676124701936006	0.28958145483145453	2.7432967010849763	1	-0.4746383834048722	0.4313749084038043	1.0687454895052129
