72
config_type=liquid dft_energy=-6952.310523061293 dft_virial="-32.74908186083649 7.4952869306588 -6.137749788225005 7.4952869306588 -25.548128204422184 -9.099102935215539 -6.137749788225005 -9.099102935215539 -16.585980343753064" pbc="T T T" Lattice="10.937506495300001 0.0 0.0 0.0 10.937506495300001 0.0 0.0 0.0 10.937506495300001" Properties=species:S:1:pos:R:3:Z:I:1:dft_force:R:3
Si	-0.38023147580260924	-3.2990144591383674	-4.654029326321599	14	-0.5311492214574708	0.8517711970905766	-0.6429606782884744
Si	-0.0880031772611838	4.52410268666393	1.6843978752891908	14	-0.08236510182041169	0.516081515839275	-0.9369385465994176
Si	-1.1858991417529026	-5.462857931649034	-3.8285647736148127	14	-1.2817433104317082	1.8193352076004061	0.9555836881600676
Si	4.87575445799432	4.267968159556995	0.4063721163263762	14	-1.3953260017177618	0.1576290678571064	0.01788769393333422
Si	1.0640662569017558	2.713442236392996	0.9626974467033155	14	0.5266952957113783	0.43294353975962674	-1.1026840797311674
Si	3.496819264105868	-2.8009969758878728	1.0742272004358895	14	-0.6881074879365505	-0.9046989427690169	-1.6105396012091606
Si	1.5456774804093008	0.4215971253678338	3.2523769314424085	14	0.735710217386432	-1.7664676257864573	0.025684570816683266
Si	4.921877922885001	2.682018780231999	4.563258959917104	14	-2.5072246658058077	-2.049009731854446	0.2507411328052051
Si	-1.0205349810504618	1.6133368955892267	-2.0708199797681397	14	-0.9207192429083275	0.03980739522972465	-1.0239673763600459
Si	2.2201060059224895	-0.35410177278533755	-4.025330515465259	14	0.7856950759154309	0.21203057110505555	0.5577113105199205
Si	3.838824154707404	-4.915271668961839	1.7585651068338202	14	0.394054543350259	-1.4127827783994389	0.8224279434033226
Si	1.8163807661679758	-2.6239515582484514	-4.539666758406742	14	-0.21064654511121989	0.024562026233906614	1.0501589691458624
Si	-1.1202959777940933	-1.0296459239610467	-1.2059694661717781	14	0.26195783687488305	-0.8945896137607265	0.3257852693370271
Si	4.584291784907566	-0.6968941638545348	-4.344629142582552	14	-1.2850181272779808	1.343550111222748	-0.6868206497238164
Si	-5.3626594346455905	-1.7944948156708804	-2.7363891250201355	14	-0.24545802559336477	-1.3069997922125869	2.5241834193869725
Si	-1.513532148819614	-1.6480744162182996	-3.3615223087590067	14	1.0167034896095635	0.2757345905118326	-1.2316273255313819
Si	0.49214404226251884	-5.49079232323803	-2.165834098692811	14	1.2434158434242606	-1.3681031385880338	-0.3178973753253448
Si	0.8840895875215944	2.828537617243038	-1.4704930607606088	14	0.08174803654357615	0.5506094034046075	-0.46532763970901986
Si	-3.8984773151327703	-4.663610582011482	-1.03887717944308	14	-0.9930104969738669	-0.13967838184342857	-0.4438180297111931
Si	-1.0741397003839273	0.4940799809121869	-4.358957276091395	14	0.3614357014851364	0.2808217794982775	0.3933567453663708
Si	-0.5538643914154968	-3.029754924237072	3.7298975275207114	14	3.1632640426368117	-0.17658325627723806	1.3773724874882318
Si	-0.5578237687667953	4.26053065514019	-5.605778329023119	14	0.36386719578640037	0.04265849391923686	-1.3534887188377802
Si	-2.593348415074602	-2.4506686428434135	3.443761420097168	14	-2.74969249591184	0.09801053480404477	-0.8788421078958837
Si	-5.1971530863587105	1.3435851728956427	-4.594299603350765	14	0.003483076377204603	0.054170875100731895	-0.15865519599037753
Si	5.462814181623052	-0.4102221186127218	3.1593315636868913	14	1.0026475139348459	0.6594165236690182	2.229351429888676
Si	2.4703233420154675	-5.4443626081654815	3.715569394011868	14	1.8146041167008016	0.4773634979336971	0.5358283760296082
Si	-3.5147677122646557	-2.695690663351124	-3.7118506418034656	14	1.0793083614919772	-0.07606100868594062	0.23324810353851358
Si	3.7727178654498106	1.027720922817874	2.9583658193422493	14	-0.222889891535233	3.4172977329149985	-0.71556535009254
Si	2.2872076082711548	0.8530161315684471	-1.8200557683503966	14	-0.5559151363432652	-0.5349503435627777	-0.8059708124701187
Si	-3.388297324659501	5.770409676790375	-3.211372219591529	14	-0.36936267629768493	0.8708390283658587	-0.2630883518841522
Si	-4.168775913151119	-3.2721410056794156	5.014901415627527	14	1.4535692505350761	-0.15297793833295856	0.18943698310425433
Si	4.01604457245075	-5.450279799179439	-3.8172663294051676	14	0.42802758638750366	-0.1698472174489821	0.11444966800000755
Si	-5.322551598327325	2.442224887829042	-2.544720261196498	14	0.6143339916539456	-1.0857494945400121	-0.2434703040703583
Si	-3.2683675659385365	2.3928201709897716	-1.54581966799374	14	1.163220754494054	-0.14970235015508987	0.8079220242975791
Si	1.1149365996113962	0.9361193059197365	-5.598198637021876	14	-1.3991988576615007	-0.6274491998920211	1.7336965744863817
Si	-2.0961512448112547	3.3516457403937507	1.6827681868213908	14	-0.8189183846413203	-0.5270519080192827	0.5389260437193226
Si	4.561541771397342	-3.740474096301666	-1.219816349394828	14	-0.09687847713158357	0.6140748242376747	-0.3648221043023034
Si	-3.9279210826181177	-3.2163597225533858	1.4987118275184828	14	1.994791291305291	-0.4680861786070067	0.0854054338614868
Si	1.269910129143302	-2.646275009005359	0.5121487416424225	14	0.8459754114778987	-0.8866652100534981	0.7861414197990088
Si	3.390506700971552	2.4736374064835434	0.8255411152522535	14	0.6064319565630025	-0.007355418099879625	2.200276342486313
Si	4.946935750265733	-2.0515590308299165	4.8000669130468445	14	-0.21723834493101554	1.082311926726974	-0.8002220780847996
Si	-2.160463783003619	0.8451630019048216	1.7920885642419144	14	1.1001021757686746	1.195758863652124	-1.173691580910357
Si	-2.968056450097085	1.3922023892672513	5.511803273215502	14	0.13773051245288437	-1.4143616941765422	-0.6734753275595877
Si	-4.758646575949143	-5.336726606745234	2.179068481552124	14	-0.2969402958608178	-0.2652971884646914	0.831882926107635
Si	5.3395047333950405	-1.6650384887925098	1.4816055673598334	14	0.7809171908989997	-0.8435374894133344	-3.166841221468734
Si	1.1291991080812673	2.9982111555046265	-4.7567106372994745	14	0.916683121776759	0.4639636683366813	0.5825127066591329
Si	1.7015150729543354	-2.0204965123832643	3.045679933694229	14	-1.3887951370940537	0.13153517707345555	-0.2863375717415912
Si	-0.0936578681192539	-4.585658973219479	-0.0936797431322445	14	0.8326737981041126	-1.29500738566782	-1.6694531371834378
Si	3.2485925541950347	4.002689877019988	-5.391643826858135	14	-1.312386514968829	-0.11393724670970204	-0.8158166031830937
Si	3.0328283635622513	-3.201637838810712	4.596804292338189	14	-0.7517366881785112	-1.1576684525551941	-1.2884076154215318
Si	0.24398295739065712	0.6607457048875683	1.491908698478406	14	-1.1200560099372798	-0.2027936181318916	-1.2167773925338023
Si	-2.288082608790779	3.3255925999219462	4.151757153044432	14	-0.22842856661589603	-0.776875156225195	-0.9207207855715196
Si	-2.9398048708197253	0.10586412536800871	-0.4910065415870077	14	-0.9999604517647592	1.5130024068945551	0.5913161712753201
Si	4.342944766582276	1.349863301623945	-0.8316004938506497	14	0.7708402578177435	-1.7217059677153392	-1.5336514679417284
Si	-2.111255941281264	-3.377677005852565	-0.4764924704677445	14	-0.13862757109908405	1.1731650185407907	0.7350720690459714
Si	-5.235981234417026	-0.6770972770980419	-0.6595535166795806	14	0.23116319423440548	0.5354959321117131	0.3121656102351387
Si	-3.740397533756199	4.262860344023689	0.1258141372154359	14	0.7011175379670318	-0.8526736550579485	0.4446479825085369
Si	0.2105688750475156	-5.214215596491378	3.624459964906019	14	-0.5613386259055855	-0.50286809137797	0.31984344494216493
Si	-4.446872953300617	4.118233695636338	4.206554060585885	14	1.0165667068065318	2.109076665675341	-1.1522351927926573
Si	-4.865418514356262	-5.292232830322353	-5.010548288042397	14	0.0946079340233608	-0.2655784673867156	-0.04248237320480671
Si	1.0885225214252467	-0.6139331770876844	-0.35411271029183283	14	-0.9123096716271872	1.224077531869299	-0.21366965074664998
Si	-3.192723771017042	-0.19379074008372543	3.5210130284734715	14	0.3607507590278489	0.749510882302859	1.5947219041690774
Si	2.3920436080286054	-4.110643066128599	-2.7726688340650454	14	-0.1304951649714557	0.5378145548894228	0.6166094198622767
Si	4.395849485500042	4.146911837667014	-1.9269261443159729	14	-0.8936917837829309	1.3831826712907025	0.1618965884674882
H	3.8354389964471083	-0.5645689290224469	2.9014000042627783	1	-0.79397814881482	-0.7192371456002434	-0.12491689486886241
H	-4.849330536052325	-3.394314046982566	-3.945473593041775	1	-1.4386617247783258	-0.5990701106998225	0.10691787207516579
H	-0.43552713364024787	-4.057429909527666	1.1156136312634553	1	-1.370239212888013	1.5614546295422138	3.581759256049866
H	-3.439762667722486	0.05098737402914002	6.455283521006574	1	-0.041879706117763996	0.16741649447931412	0.09932848339115267
H	-1.6202997122241347	1.3575742437031313	3.3745116914728253	1	0.03462456112537015	0.373687789667238	-0.053131120109264005
H	1.297181707838683	-3.207492686037646	-2.0684257595963187	1	0.26269471565963753	0.3427244825177587	0.4804963897662975
H	-1.6863272514349616	-6.806895917313582	-3.3158396253800873	1	0.13400523795452182	-1.191592130370292	0.28911359415575505
H	0.2685660969894934	-5.658178828891452	-4.236159703167363	1	1.6349694726296118	-0.6558730263167901	-0.12554424456697855
