72
config_type=liquid dft_energy=-6925.127375755708 dft_virial="-19.60715308425857 -0.9121660629455126 -12.148594259641143 -0.9121660629455127 -24.1227063910191 -3.5205634487533826 -12.148594259641143 -3.5205634487533826 -10.66328753486909" pbc="T T T" Lattice="10.6347114159 0.0 0.0 0.0 10.6347114159 0.0 0.0 0.0 10.6347114159" Properties=species:S:1:pos:R:3:Z:I:1:dft_force:R:3
Si	34.29190346306636	27.36895092967803	-8.374229061470544	14	-0.861297142301725	0.6571688633981447	-0.6915885074294991
Si	27.236984795718126	2.9985206919815	11.100107656882617	14	-0.051318747969091624	-0.2494252411023533	-0.16216886852089185
Si	5.400848827276231	-7.833092405783888	8.704585736894062	14	0.5476287210069599	0.3666874412120708	-0.27109323118790124
Si	31.740253344780978	6.837364375913171	42.84295587124908	14	-0.24568376864047375	-0.20747328692509312	0.6362693766927889
Si	20.744674266405248	8.540524043880971	-7.107464776454199	14	0.8858573687619076	1.8884663161169513	-0.27357357649024805
Si	23.977041627710975	14.22563870730421	2.9861737920276408	14	-0.9366133017764188	-0.2267406359732188	0.7444800005229253
Si	0.8917843604917104	-6.789508174541622	-0.6608516020954419	14	0.47103857884613276	-0.025849635778236776	-0.28500008275405014
Si	16.335831320004168	5.438750938762498	6.186583845528586	14	0.2537110165605081	-0.5817411179525566	1.5890754997755006
Si	25.340890193243066	11.976737553606668	0.7029437898795742	14	-0.39441758342146394	-0.03953794339217313	0.2846720097151993
Si	28.194491672760098	3.270375819906152	6.088531806273989	14	-0.4270719065400046	-0.5951044378540261	3.554578559047388
Si	20.85876345047502	-10.265644390922606	5.123367937012568	14	0.360404688251757	0.801096768114714	-0.6664690655621843
Si	10.280245849696637	13.402756642076115	18.256311315755884	14	1.8597828080548475	-0.642380894038781	1.6142651328180553
Si	9.703876395089104	20.338194326666716	-0.6123679527503538	14	-0.7794686301616284	1.3311154745629157	-0.779464002172052
Si	28.162459921975408	24.958604221975712	13.690904147889926	14	-0.9168463869645885	-0.7429728185842543	-1.068138451539126
Si	8.13703245805031	-3.8009841112910663	-11.049071676797713	14	0.5735475195183086	-0.37477922387564083	1.1332799759303975
Si	22.802799332012956	-10.96604648477378	23.869620407698967	14	-0.6246793481306255	-1.177511986305565	-1.0492932779845683
Si	13.815202654918965	30.5861638272161	-2.8895042652571092	14	-2.71453443043254	0.7569758294893769	0.6743243065363007
Si	0.6145693380134452	25.476886882829596	33.57621928891054	14	-0.014776913606487054	-0.035077075661716216	-0.008205168408188565
Si	39.16383491807281	1.2244274988696464	3.7887967320084455	14	0.16044442818266855	-0.14642161976658094	-0.46794065404588636
Si	18.317748043605537	-3.157903111971594	16.141322448207355	14	-0.28930565572317013	-0.9929277073825582	-0.4509255932582104
Si	12.431775585670199	11.888214215780717	-11.18699324915052	14	0.2194484670642148	0.33491783543419307	0.35974442840554294
Si	12.030772522310855	2.2632048405519267	-16.205896415924702	14	-0.4362538378593174	0.9465526807230474	-0.35403734592641023
Si	34.36586788096395	21.554518175437448	5.710021157559276	14	0.21197117857216013	-1.5091730026307264	-0.4905440122469041
Si	20.12071447821156	-22.761440939316522	-4.216886405344084	14	0.5576753150454384	-0.19501576742791166	0.5376500041489332
Si	20.000435892097734	14.393220489795961	-7.013379484557731	14	-0.614026487457656	-2.146543326621603	-3.853660328529358
Si	53.18661650511873	-9.1994933020558	-7.958847868276906	14	-0.6449669117697859	0.7985480314108512	0.47362639635086173
Si	11.410492344267073	31.577999552708594	7.780812164463324	14	-0.639760166385954	-0.7947121993837223	0.2281403457095074
Si	6.970181286786346	-5.377250402644348	32.80900993794469	14	-0.4294689480299786	-0.13675220687856804	0.24485767250111018
Si	6.443646089873721	0.3963982333162566	11.075839245431531	14	-0.3119866613048564	1.0177242184216624	-0.34007984358545434
Si	21.212271892650953	28.416161597513117	18.015924298910882	14	-2.1939329114404447	2.4176594406468537	0.0828132454777135
Si	31.386362052994077	26.352155536492415	-2.7331633727319637	14	-1.0241015880577575	-1.4739550303974662	1.5975544909002846
Si	30.071816009586097	17.451816666565882	-8.10440516342633	14	0.24046699594589338	-0.7467803684528617	-1.210064236542896
Si	24.339376880362103	25.482151064980467	5.313314517611958	14	0.328752067765946	-0.5067252635792561	0.29003045031291985
Si	25.69097425834308	15.610320672500054	8.302497932970299	14	-0.48516731680141045	-1.2622504754470054	-0.13816760035730957
Si	2.1683219452992666	1.5218059341924581	-13.526916897856749	14	-0.13277136451138277	1.586293049598036	0.2583878571378575
Si	7.588206906009959	4.622664454129164	19.484312077661276	14	0.3558522891719028	-0.3507609864169456	-0.038541640080615745
Si	5.264086438467757	7.027023819304332	29.645874547956467	14	1.5540519031044435	1.3162190045590416	-0.054548827582793655
Si	0.33457865585562996	26.13881259077804	-15.576863870385633	14	1.2455624592560524	0.4550969545296187	0.3943394218197314
Si	11.696225770589473	19.659051020935927	10.8221907434509	14	-0.6581345705563922	1.095611226105972	2.193130726580558
Si	26.16805804717177	-11.116889231496906	25.3943508875308	14	0.24560997791778558	-0.26481459199609964	0.1647736553207339
Si	18.786355967435757	9.666293324945315	4.2455575873213505	14	-0.9529321072433987	0.10169775694366914	-0.41049084833036964
Si	4.7953189939663	-1.544585486045316	-0.4319500735796103	14	0.41477199579894813	-0.2082471896264577	0.070528761368578
Si	19.343540402649005	0.31813739200664853	22.900064402622778	14	-0.31340128345200186	-0.036705099550433974	0.10955814012842585
Si	26.90818078816133	-0.1576702314521334	-2.227110630006362	14	-0.09362525757000022	0.8634198468540394	-0.15210196275038407
Si	30.531033483236072	-7.890094458973112	16.335001812513728	14	-2.3207146289980103	-12.574828234297485	5.208097013898676
Si	5.197736473943957	-4.224394511603709	-6.4058290560787805	14	2.4702683692655953	-8.654567536218204	-5.3728431583924845
Si	44.58041248353315	17.57137209230343	28.21282591524111	14	2.355667006051699	0.3713018039301406	-0.1967569199507159
Si	34.15296095841763	27.61867522314619	-16.66513515899751	14	1.095973751956113	0.4253266402486881	0.829781047508414
Si	6.798632756936464	-23.94006473611789	-8.020199518435232	14	-0.6355098721812172	0.6851990535983989	0.4515935664203848
Si	13.37563812796557	-23.177045461449897	-6.778777750722978	14	0.12431705599767184	-0.0008597776190575175	0.25627286590150367
Si	5.170373361470846	12.908029867008448	-16.78963572554345	14	22.19850038733335	4.453015831919717	9.248184075423458
Si	14.076837825172937	14.678124408627923	0.8815431333981987	14	0.10368136469816337	-0.95288505601604	-1.5658473629816867
Si	8.88670516989135	14.27670659152336	21.673999158195084	14	-0.12924997866490798	0.31921326702819663	0.20404394664907963
Si	-3.506147371996655	9.399053661775163	-3.888337630861269	14	-0.2577985597984795	0.304304712829318	0.3787091583574872
Si	34.1667860832583	16.404893135939023	-1.6273554449952656	14	-0.10153012087679547	-0.7339037587884961	0.1777178850550194
Si	18.608766921501644	7.32329624463989	-2.581586830921141	14	-0.8874902777507337	0.02663408001141395	-1.7739731964370336
Si	2.7021738236660306	7.95186086287666	-11.38357588967343	14	1.5997203900219774	-0.6143707584600238	-1.0380115249502908
Si	-7.291200685586704	-20.066477449990472	35.122793465990625	14	-1.3641107262469079	-1.7047965793563211	-1.9286465216180977
Si	15.092335783565812	-8.973165373702615	-14.587006201216493	14	0.1048401618659541	-0.4911430797864986	1.0308949625346528
Si	29.868980158750635	-8.912972907088623	-1.6288443045934917	14	-1.1803661703214614	-1.3409710354761073	-0.5389682098465731
Si	4.236475543772172	18.84237962717472	-4.773709260369192	14	-0.6714377265933704	0.9224891918107175	1.2085814801047665
Si	7.584835702491119	9.011343987685697	0.2032399698692649	14	-0.41732253227653504	-0.4693699314933566	0.6690805372358586
Si	15.29974456031011	16.41921809221624	12.342433375065221	14	1.4986350703655678	0.9071345508387931	0.6578108683965856
Si	32.01978673434791	-4.249471161122401	-17.52209083960215	14	0.07367219473299104	0.6204773907059075	0.31358820280877664
H	-6.405816294425082	-19.18109305882885	36.008177857152255	1	-20.672096351068056	-3.203936357696234	-7.941526754439517
H	4.9089349333780685	18.136112489977673	-5.973587591406375	1	-1.4318313263848204	8.073497476754206	1.7139011204054977
H	29.349830768916352	26.145975068916652	13.690904147889926	1	0.5143293075635941	0.6472395117622648	0.29882645872367847
H	28.162459921975408	24.958604221975712	15.370099557153138	1	0.32675509026378696	1.4747451310623478	-2.667122476997413
H	21.07720467684217	15.469989274540403	-7.013379484557731	1	0.5729695350423394	-0.5684145648571649	-0.05273465566889717
H	20.000435892097734	14.393220489795961	-5.490598347328436	1	0.6375428451578584	11.528346717091031	-4.377936471245009
H	15.192141486732893	30.018238333472787	-2.909892070512531	1	1.8318901719892209	-0.7912239807958774	-0.10250431268259957
H	30.736181320333348	-8.045771745505906	-0.7616431430107757	1	1.2606615323591541	0.2774736861503807	0.8898050438704631
