72
Lattice="11.105996452100001 0.0 0.0 0.0 11.105996452100001 0.0 0.0 0.0 11.105996452100001" Properties=species:S:1:pos:R:3:Z:I:1 pbc="F F F"
Si      10.56638940       8.06942822       6.58643341       14
Si      10.87455859       4.38559141       1.68774496       14
Si      10.22910029       5.93787653       7.42193752       14
Si       5.16981914       3.99926932       0.77995525       14
Si       1.16254239       2.76663699       0.43622577       14
Si       3.76919750       7.85285018       0.48511104       14
Si       1.63630199       0.17324133       3.25113608       14
Si       4.99758734       2.85314159       4.60655631       14
Si      10.15286873       2.41677589       8.41519121       14
Si       2.36545508      10.42747560       7.04484452       14
Si       4.23603806       5.84981709       1.86389717       14
Si       1.75279278       8.24173776       6.68900839       14
Si       9.66117295       9.57024816      10.08211243       14
Si       4.68920714      10.56444585       6.58882120       14
Si       5.67015538       9.56382889       8.51063614       14
Si       9.40479102       9.71153864       7.71741256       14
Si       0.80838771       5.59514548       9.07051163       14
Si       1.12328269       3.03705690       9.17373077       14
Si       7.18024883       6.02694662      10.22315858       14
Si       9.97958187       0.69255550       6.89513569       14
Si      10.63537985       8.00262565       4.24004733       14
Si      10.50829394       4.67847875       5.46388371       14
Si       8.52474076       8.93278617       3.69080027       14
Si       5.90029384       1.35714166       6.09106154       14
Si       5.48565146      10.74675078       3.00108457       14
Si       2.66971496       5.64980920       3.66520095       14
Si       7.33432231       8.75334659       7.18256998       14
Si       3.86937359       1.37957577       2.98513636       14
Si       2.09639010       0.04362169       9.21438982       14
Si       7.98241274       6.41500125       8.11580686       14
Si       6.72946754       7.85493811       5.08686845       14
Si       4.13205262       4.99241195       7.39749322       14
Si       6.25022158       2.63837384       8.08060085       14
Si       8.09044077       2.35744765       9.59652494       14
Si       0.95344535       0.78763283       5.58480580       14
Si       8.77806854       3.38595177       2.13845962       14
Si       3.95993188       8.21712687       9.32461683       14
Si       7.62924205       7.72124413       1.62993825       14
Si       1.49240159       8.19140538       0.85525946       14
Si       3.55267499       2.20859398       0.75810420       14
Si       4.98157250       9.27334045       4.76833736       14
Si       8.96471591       1.19920328       1.75618011       14
Si       8.16962652       1.19584927       5.26497531       14
Si       6.17514504       6.32872987       2.98826825       14
Si       4.71006420       9.89387689       1.02624516       14
Si       1.19060724       3.14187529       5.53712776       14
Si       1.53001760       8.73700967       3.09236476       14
Si      11.09564566       6.26540347       0.25280024       14
Si       3.33339820       4.12545565       5.37117085       14
Si       2.89132401       7.80709348       4.63978546       14
Si       0.27196475       0.70167352       1.29909062       14
Si       8.68376752       3.40440994       4.54014246       14
Si       8.22492328       0.46627860      10.76740794       14
Si       4.25012046       1.27802254       9.89600924       14
Si       9.13695881       7.35971062      11.00617576       14
Si       5.82766062      10.84115175      10.41764679       14
Si       7.38544322       3.92110532       0.19502241       14
Si       0.28325178       5.88160245       3.67795063       14
Si       6.58625571       4.56102173       4.74827994       14
Si       6.46453399       5.06889895       7.08839113       14
Si       0.70682449      10.07188380      10.78546629       14
Si       7.85983586       0.02273175       3.50135418       14
Si       2.68431934       6.66557474       8.21763774       14
Si       3.71559996       2.76909141       8.23147581       14
H        3.01964269       2.10465296       7.10006353        1
H        9.70025495       3.67747308       7.79346642        1
H        3.39975653      10.76327651       0.77448333        1
H        2.81571439       9.34531841       9.46942792        1
H        5.50073341       3.59113506       2.20297435        1
H        6.61970697       8.67523811       0.95819761        1
H        1.16367520       3.08937725       7.05118604        1
H        6.04191751       6.90268776      10.73223525        1
