72
Lattice="11.105996452100001 0.0 0.0 0.0 11.105996452100001 0.0 0.0 0.0 11.105996452100001" Properties=species:S:1:pos:R:3:Z:I:1 pbc="F F F"
Si      10.90476690       8.19031699       6.36675680       14
Si      10.96136306       4.58702087       1.41776930       14
Si      10.14379513       5.87832618       7.12336391       14
Si       4.95151967       4.31814469       0.89505447       14
Si       1.28960610       2.82177826       0.71066383       14
Si       3.59798746       7.92654958       0.62960227       14
Si       1.61590027       0.30228523       3.34441535       14
Si       4.78200885       2.72696637       4.64278407       14
Si      10.00911271       2.20562868       8.28445142       14
Si       2.27671817      10.73739954       7.23163627       14
Si       4.01478440       6.12311345       2.02455652       14
Si       2.03448528       8.45461750       6.91876925       14
Si       9.75930553       9.85272918       9.91731055       14
Si       4.74636970      10.36171699       6.99823265       14
Si       5.79902937       9.21746618       8.63312418       14
Si       9.44098546       9.44075224       7.63250721       14
Si       0.63690224       5.47094712       8.95025590       14
Si       1.14526146       3.07931521       9.40078176       14
Si       7.26714214       6.32655309      10.14455034       14
Si       9.89352150       0.49965434       6.58985405       14
Si      10.60916970       8.01402040       3.91147642       14
Si      10.39976614       4.61876180       5.26660790       14
Si       8.46336902       8.64046524       3.53313955       14
Si       5.83301371       1.36711485       6.35843841       14
Si       5.54788947      10.78996422       3.33304281       14
Si       2.58848570       5.88706660       3.75284947       14
Si       7.52051435       8.30651903       7.14465411       14
Si       3.82467195       1.27867780       3.12489422       14
Si       2.68939478      10.91432917       9.45021455       14
Si       7.90990169       6.19659072       7.86318987       14
Si       6.87186862       7.94742885       4.96887834       14
Si       4.00069089       4.85463096       7.40844374       14
Si       6.13738465       2.77043524       8.19811340       14
Si       7.86275673       2.41444363       9.64175967       14
Si       0.73625315       0.68811754       5.50288797       14
Si       8.79111808       3.44105973       1.68288054       14
Si       4.36330167       7.69020287       9.48192217       14
Si       7.46262989       7.63066362       1.65478237       14
Si       1.47530946       8.30810719       0.75874169       14
Si       3.66576735       2.30923652       0.94092778       14
Si       5.01400201       9.33068071       4.98060627       14
Si       9.35972289       1.06915762       1.67676113       14
Si       8.18444192       1.33524064       5.18941011       14
Si       6.11822681       6.19872307       3.25964328       14
Si       5.03499234       9.67937568       1.13707634       14
Si       1.08764355       3.10701357       5.84206510       14
Si       1.45400816       8.91993653       3.18783190       14
Si       0.14024430       6.41218032      11.07947533       14
Si       3.09928379       4.25884978       5.18872154       14
Si       2.87482050       8.10912105       4.69063981       14
Si       0.45459509       0.84195448       1.45690683       14
Si       8.69712803       3.45587513       4.17965292       14
Si       8.09039634       0.34631384      10.85104720       14
Si       4.36403467       1.47595361      10.06999579       14
Si       8.98158592       7.64193620      10.84375056       14
Si       5.91650860      10.82660290      10.36979105       14
Si       7.27913662       4.27252126      11.04595744       14
Si       0.19539224       5.60710664       3.51991230       14
Si       6.58942092       4.30239639       4.53511144       14
Si       6.27009020       4.62680255       6.98205121       14
Si       0.76838724      10.32556698      10.95759813       14
Si       7.88111494      10.93990628       3.21837339       14
Si       2.73508485       6.55440371       8.32599895       14
Si       3.35574346       2.98473655       8.50358383       14
H        3.59061308       2.24924193       7.07645218        1
H        9.79134633       3.59754322       7.71810113        1
H        3.60282967      10.82890184       0.90028539        1
H        3.65616067       9.87306426       9.38552212        1
H        5.87988102       3.90111453       2.14275764        1
H        6.39061248       8.88935062       1.05127919        1
H        1.04267426       3.13099141       7.38107856        1
H        5.74860814       6.55467026      10.07273897        1
