72
Lattice="11.105996452100001 0.0 0.0 0.0 11.105996452100001 0.0 0.0 0.0 11.105996452100001" Properties=species:S:1:pos:R:3:Z:I:1 pbc="F F F"
Si      10.81426414       7.96023406       6.37013302       14
Si       0.04802344       4.39467611       1.49513367       14
Si      10.30949660       5.87669360       7.33867587       14
Si       5.14187645       4.15986203       1.00470175       14
Si       1.14575012       2.65793149       0.58199086       14
Si       3.72067540       7.82190888       0.62759097       14
Si       1.52822954       0.30533605       3.34861341       14
Si       4.78772843       2.73658416       4.63075628       14
Si       9.80178597       2.49127491       8.49217798       14
Si       2.68564096      10.78202343       6.87434526       14
Si       4.35597172       6.08494214       1.98551894       14
Si       2.03805030       8.36608049       6.67853544       14
Si       9.67753208       9.78903629       9.87521882       14
Si       4.85456432      10.50208568       6.62088421       14
Si       5.73713565       9.40010429       8.44955316       14
Si       9.46839506       9.44864860       7.37755796       14
Si       0.77514191       5.53378485       9.18320418       14
Si       0.74034905       3.18946449       9.60844168       14
Si       7.61795836       6.12586774      10.18138893       14
Si       9.79870961       0.59508150       6.90476458       14
Si      10.41307112       7.89846251       4.13311879       14
Si      10.45537386       4.46118993       5.35825458       14
Si       8.43885809       9.02074566       3.51309322       14
Si       5.93883165       1.36333881       6.10425547       14
Si       5.40795391      10.95949725       2.84955436       14
Si       2.75512007       5.85853529       3.76294482       14
Si       7.38431041       8.45897105       7.26971873       14
Si       3.75976851       1.45267544       2.79117013       14
Si       2.57249306      10.88821897       9.28795594       14
Si       8.00308100       6.23416231       8.01715229       14
Si       6.63171256       8.19929064       4.85099930       14
Si       4.14950014       4.63468780       7.39948120       14
Si       6.03102253       2.49817174       8.34611191       14
Si       7.94022106       2.52746935       9.78521582       14
Si       0.94575445       0.64985850       5.53900467       14
Si       8.90948579       3.51078317       1.89685977       14
Si       4.10407661       7.97827020       9.36948506       14
Si       7.96884121       7.31372069       1.95335597       14
Si       1.23677487       8.02050631       0.94677620       14
Si       3.35513263       2.58334362       0.79054593       14
Si       4.79382563       9.35175989       4.58238967       14
Si       9.20425004       1.04805956       1.59443238       14
Si       8.13793001       1.29110541       5.44955698       14
Si       6.19474713       6.37475312       3.39694671       14
Si       4.96965576       9.76193766       0.96563752       14
Si       1.14031929       3.06536608       5.70782692       14
Si       1.24980220       8.90203367       3.23221147       14
Si      11.08761603       6.45150666       0.04488322       14
Si       3.10433702       4.10053380       5.37292560       14
Si       2.92918435       8.05834444       4.50581382       14
Si       0.29476203       0.59299802       1.44464581       14
Si       8.43610380       3.47998625       4.38426980       14
Si       8.12034921       0.35872591      10.67392877       14
Si       4.48933252       1.46107158       9.98914413       14
Si       9.27693879       7.51633849      10.85521195       14
Si       6.13466368      10.79871574      10.27311335       14
Si       7.32233894       4.25786134       0.20624169       14
Si       0.28282753       5.89638453       3.53472770       14
Si       6.45611565       4.35449462       4.73267601       14
Si       6.54009919       4.56474224       7.14658655       14
Si       0.85858571      10.17555828      10.79300726       14
Si       7.91404422       0.11072379       3.29459385       14
Si       2.63860706       6.76348520       8.14153946       14
Si       2.91213665       2.74413624       8.77880153       14
H        3.23343313       1.73869927       7.73449358        1
H        9.81314741       3.36822660       7.40172461        1
H        3.96340806      10.72650455       0.49070402        1
H        3.21573017       9.33100278       9.49553812        1
H        5.57184510       3.41339469       2.33702373        1
H        6.94281373       7.87005337       1.16208704        1
H        1.48330578       2.85030957       7.29010934        1
H        6.38866893       6.69895936      10.34194832        1
