72
Lattice="11.105996452100001 0.0 0.0 0.0 11.105996452100001 0.0 0.0 0.0 11.105996452100001" Properties=species:S:1:pos:R:3:Z:I:1 pbc="F F F"
Si      10.92918899       8.00130404       6.54664062       14
Si      10.86592923       4.80757485       1.43594981       14
Si      10.14761559       6.04478285       7.40695553       14
Si       4.91970099       4.17626559       0.76099176       14
Si       0.97673241       3.01668850       0.85595803       14
Si       3.76940851       7.84377658       0.47609075       14
Si       1.73811066       0.23704750       3.62224295       14
Si       4.80081130       2.51975069       4.79009401       14
Si       9.78690394       2.43026967       8.38872562       14
Si       2.38589011      10.57429687       7.27118473       14
Si       4.20866178       6.05386756       1.85963247       14
Si       2.04991151       8.34675606       6.74078455       14
Si       9.72693155       9.58595204       9.81763423       14
Si       4.54703928      10.21347415       6.76553981       14
Si       5.51046226       9.21905434       8.55824755       14
Si       9.45752229       9.58061005       7.52513444       14
Si       0.66780468       5.52117955       9.07295495       14
Si       0.76619936       3.44316987       9.68369591       14
Si       7.38919704       6.22869816      10.24630348       14
Si       9.70115454       0.72604119       6.75422280       14
Si      10.63414709       8.33365098       4.06658277       14
Si      10.35902934       4.68657502       5.27892445       14
Si       8.59320922       9.02203396       3.52306641       14
Si       6.03208870       0.99717966       6.26236043       14
Si       5.52103517      10.71034533       2.74802334       14
Si       2.68405280       5.86134511       3.91165412       14
Si       7.54528072       8.32221181       7.41562932       14
Si       3.91119877       1.26090820       3.12432782       14
Si       2.77102386      10.70444804       9.48191106       14
Si       7.82368584       6.18565131       7.98705504       14
Si       6.88928283       8.16612813       5.00928196       14
Si       4.04143879       5.07973840       7.37274906       14
Si       6.28672699       2.66128551       7.81296855       14
Si       7.76526830       2.48762104       9.39109733       14
Si       0.82284217       0.72481287       5.90469182       14
Si       8.98988210       3.36251812       1.90070244       14
Si       4.46893081       7.28316810       9.30726927       14
Si       7.57445617       7.92608312       1.66462228       14
Si       1.36852531       8.43230555       0.89001901       14
Si       3.26686217       2.42232889       0.98831707       14
Si       4.89924374       9.21711079       4.59661645       14
Si       9.02377760       1.06085922       1.55748273       14
Si       8.23421900       1.45124277       5.18612274       14
Si       6.33714821       5.94348506       2.95538340       14
Si       5.51240581       9.17599639       0.91931663       14
Si       0.98618361       3.14599561       6.06977135       14
Si       1.33354142       9.13390466       3.21308694       14
Si      11.00104479       6.57658239      11.05106619       14
Si       3.19719426       4.06220700       5.32270428       14
Si       2.97398594       8.03129023       4.69651489       14
Si       0.13802199       0.89377950       1.56352439       14
Si       8.62206260       3.52919692       4.17964181       14
Si       8.05482383       0.43431221      10.72099598       14
Si       4.17613232       1.41492616      10.12517038       14
Si       8.97549983       7.75997074      10.90260123       14
Si       6.00437924      10.82163852      10.27286902       14
Si       7.08229394       3.77865981       0.28983652       14
Si       0.38092235       5.96194323       3.65037444       14
Si       6.41797765       4.17537711       4.54362974       14
Si       6.31762387       4.93434980       6.88287467       14
Si       0.82717573      10.36881373      10.85644471       14
Si       7.82039846       0.16654552       3.29139532       14
Si       2.44991618       6.24840019       7.96199992       14
Si       3.95332382       2.95982580       8.40501811       14
H        6.00551205       6.86361687      10.43142933        1
H        9.78762583       3.73591283       7.93876617        1
H        1.00181974       2.85306385       7.68378360        1
H        3.39076067       9.42806919       9.88923459        1
H        6.46748819       6.54470818       4.99184554        1
H        5.89912771       4.10455417       2.49252989        1
H        2.01425015       2.61464032       9.35615786        1
H        3.33874018       2.18287250       7.33617702        1
