72
Lattice="11.105996452100001 0.0 0.0 0.0 11.105996452100001 0.0 0.0 0.0 11.105996452100001" Properties=species:S:1:pos:R:3:Z:I:1 pbc="F F F"
Si      10.75786789       7.93051442       6.35198582       14
Si      11.00216649       4.69227240       1.59424358       14
Si      10.02715996       5.91239938       7.21718737       14
Si       5.22122879       4.04870211       1.31788196       14
Si       1.30776440       3.03435814       0.88326989       14
Si       3.70643751       7.87216351       0.47243687       14
Si       1.44179157       0.19775893       3.32751202       14
Si       4.69106184       2.29679781       4.66662865       14
Si      10.05106006       2.58153335       8.29911133       14
Si       2.40158288      10.45038727       7.12624037       14
Si       3.68903442       5.79603075       1.73617821       14
Si       1.95260077       8.17193657       6.81596104       14
Si       9.46106511       9.68816052       9.90827026       14
Si       4.67424736      10.49354517       6.63386712       14
Si       5.62206642       9.37450497       8.50341724       14
Si       9.68529517       9.59425932       7.60464227       14
Si       1.12813601       5.77147539       9.48544277       14
Si       0.77997635       3.34795816       9.73439478       14
Si       7.00689533       6.23140802       9.96828707       14
Si      10.03744411       0.76384267       6.57065179       14
Si      10.68708937       7.90488178       4.03742953       14
Si      10.38689429       4.39061132       5.46733768       14
Si       8.56179036       8.97324532       3.39774634       14
Si       6.04276156       1.19188443       6.20782999       14
Si       5.47583376      10.57194240       2.92737407       14
Si       2.72741061       5.78675724       3.82115135       14
Si       7.61067282       8.62922597       7.29377432       14
Si       3.61510180       1.04104834       2.87915184       14
Si       2.35286088      10.60501606       9.49830351       14
Si       7.70642873       6.31646885       7.72466477       14
Si       7.03498239       8.06679610       4.84737874       14
Si       3.88786507       4.79295936       7.34488412       14
Si       6.34182384       2.82438817       7.89595256       14
Si       7.93015902       2.60011368       9.56847120       14
Si       1.03193032       0.75412270       5.59385719       14
Si       8.79880343       3.74035523       1.94504869       14
Si       4.71878241       7.39601613       9.59343748       14
Si       7.45097970       8.10603358       1.62277488       14
Si       1.54033507       8.43563735       0.87847321       14
Si       3.65549431       2.33396958       0.98639351       14
Si       4.96642392       9.17164284       4.80690849       14
Si       8.87894430       1.34764603       1.51475796       14
Si       8.18635215       1.42745372       5.15161641       14
Si       6.18429638       6.36747869       3.55457412       14
Si       5.52923139       9.38698811       1.03372394       14
Si       1.12919108       2.96996557       5.79138844       14
Si       1.43965921       9.01149437       3.19806053       14
Si       0.01736056       6.70112503       0.11112771       14
Si       3.17491563       3.96349691       5.26258752       14
Si       3.05875801       7.96613135       4.66671750       14
Si       0.32408075       0.94670290       1.46490314       14
Si       8.59712964       3.48000846       4.24985392       14
Si       8.01439801       0.31770480      10.50490661       14
Si       3.96297493       1.16200930      10.12703618       14
Si       8.74185188       7.65009911      10.96248477       14
Si       5.75611580      11.00605359      10.41696933       14
Si       7.23550116       4.19311338       0.12134412       14
Si       0.15660899       5.70446181       3.66879929       14
Si       6.44746407       4.19806666       4.71723868       14
Si       6.12530133       4.92938542       6.92169012       14
Si       0.43476089      10.37642133      10.98124279       14
Si       7.77064360       0.10522965       3.17645936       14
Si       3.02535118       6.70380158       8.17226975       14
Si       4.00718790       2.67618975       8.47214276       14
H        2.73871651       5.14805138       0.86942960        1
H        0.38931848       5.57523243       8.07373735        1
H        1.22896736       2.80069908       7.38381064        1
H        3.03816750       9.27003086       9.98559021        1
H        6.60398088       6.41614516       1.94172800        1
H        5.74656464       3.88301175       2.66248495        1
H        1.78012464       2.42780414       9.03473922        1
H        3.60331834       2.05689718       7.13413673        1
