72
Lattice="11.105996452100001 0.0 0.0 0.0 11.105996452100001 0.0 0.0 0.0 11.105996452100001" Properties=species:S:1:pos:R:3:Z:I:1 pbc="F F F"
Si      10.87509168       8.24390342       6.26494813       14
Si      10.93791830       4.64690440       1.69861773       14
Si      10.18918534       6.09261638       7.35909979       14
Si       4.60442396       4.18722721       0.47647279       14
Si       1.25719880       2.96233575       0.86646874       14
Si       3.67444114       8.14814752       0.75175935       14
Si       1.49866537       0.42860150       3.24557198       14
Si       4.97239894       2.60606649       4.44390900       14
Si       9.91855442       2.48423371       8.46326907       14
Si       2.36787619      10.60866993       6.79893554       14
Si       4.17618785       6.04975834       1.72987001       14
Si       2.15257534       8.37509856       6.60187074       14
Si       9.71400417       9.88884588       9.77968504       14
Si       4.84160362      10.48511572       6.71497421       14
Si       5.56916856       9.29158760       8.66656433       14
Si       9.28850013       9.71192735       7.52249121       14
Si       0.75725126       5.61948983       9.13250531       14
Si       0.83743656       3.13657773       9.75820604       14
Si       7.77896199       6.04660424      10.11895102       14
Si       9.86244692       0.87279250       6.66785147       14
Si      10.71323289       8.19085008       3.80197130       14
Si      10.41614748       4.51084484       5.55393113       14
Si       8.43479329       8.44342265       3.52654258       14
Si       5.86839742       1.37047996       6.29842160       14
Si       5.46431684      10.54839769       2.99810817       14
Si       2.51779603       5.90966730       3.68550271       14
Si       7.18522431       8.11347460       7.57652189       14
Si       3.75919100       1.23372072       2.88005142       14
Si       2.42972548      10.97502344       9.02071235       14
Si       8.02925783       5.77857212       7.98161311       14
Si       6.60609102       7.67195571       5.11673247       14
Si       3.91306458       4.80063360       7.18183698       14
Si       6.44834145       2.83360615       8.06015471       14
Si       7.83422543       2.49014210       9.83006184       14
Si       0.83910468       1.02407727       5.55204311       14
Si       8.77345955       3.42070244       2.11500375       14
Si       4.12346768       7.70668416       9.45171386       14
Si       7.71489150       7.18575740       1.67428450       14
Si       1.50561773       8.53943399       0.88541446       14
Si       3.41026280       2.25191848       1.02151067       14
Si       4.94044699       9.24287670       4.83019776       14
Si       8.85732093       1.06009513       1.57488583       14
Si       8.08700901       0.97736545       5.23491138       14
Si       5.88052517       6.37919551       3.18665467       14
Si       5.33203332       9.57389092       1.09894834       14
Si       1.20505615       3.22003929       5.89246411       14
Si       1.59112279       9.17838418       3.08158084       14
Si       0.51976286       6.41263567       0.36095488       14
Si       3.14949400       4.09218209       5.13027068       14
Si       3.04224340       8.02269419       4.56543081       14
Si       0.11960381       0.77434561       1.26457318       14
Si       8.54774128       3.36653849       4.42340733       14
Si       8.06738472       0.35673460      10.67165204       14
Si       4.00524435       1.39808947       9.99727372       14
Si       9.43046809       7.58287452      10.81233169       14
Si       5.71496808      10.76619738      10.40414190       14
Si       7.13305945       3.99627070       0.58592128       14
Si       0.18154528       5.89286393       3.68889004       14
Si       6.53951057       4.45742499       4.30977077       14
Si       6.16479425       4.88565001       6.85857474       14
Si       0.81520013      10.32364564      10.66631005       14
Si       7.63566132      10.70692468       3.09837310       14
Si       2.60274580       6.48296994       7.87794974       14
Si       4.57046183       3.57185505       9.35331473       14
H        3.09052116       9.77910753       9.01802470        1
H        8.31771388       5.88401245       1.93337629        1
H        6.86008516       9.35476961       0.92104361        1
H        9.21754392       5.62885218      10.27322441        1
H        1.41843565       2.96792207       7.31686369        1
H        9.51315223       3.97501383       8.13349871        1
H        2.14941013       2.35347171       9.29701843        1
H        5.36244154       6.53109223       9.42106131        1
