72
Lattice="11.105996452100001 0.0 0.0 0.0 11.105996452100001 0.0 0.0 0.0 11.105996452100001" Properties=species:S:1:pos:R:3:Z:I:1 pbc="F F F"
Si      10.88085569       7.97042937       6.37478643       14
Si      10.77685914       4.60889968       1.53120594       14
Si      10.40580780       5.72532997       7.22995927       14
Si       4.93931418       4.03407552       0.88810655       14
Si       1.06914429       2.88242811       0.83574733       14
Si       3.66287980       7.70164204       0.51997054       14
Si       1.56140315       0.33856519       3.57445385       14
Si       4.65749952       2.75436486       4.61919494       14
Si      10.10994405       3.50034354       9.20292843       14
Si       2.41148943      10.72303948       7.36278698       14
Si       4.12728814       5.91244380       1.95110146       14
Si       2.07331184       8.37411013       6.76978230       14
Si       9.57906632       9.81916686       9.77469845       14
Si       4.71174121      10.66157890       6.66816244       14
Si       5.80283872       9.38290110       8.42578633       14
Si       9.45803317       9.52476910       7.52245789       14
Si       0.81475034       5.67824055       9.14526610       14
Si       1.34787926       3.31944907       9.54969096       14
Si       7.31555318       6.20264349      10.10855580       14
Si       9.86409061       0.44166327       6.39497714       14
Si      10.68519025       7.91387763       3.99974688       14
Si      10.11405327       4.42159705       5.20168224       14
Si       8.44092380       8.73308925       3.39421464       14
Si       5.94009773       1.43299562       6.14468129       14
Si       5.47560054      10.69970578       2.89293438       14
Si       2.61566207       6.00504560       3.72750559       14
Si       7.54001648       8.33822665       7.27231754       14
Si       3.82523836       1.19168453       3.20715634       14
Si       2.55651154      10.71699782       9.67524425       14
Si       8.04803807       6.25523038       7.89348702       14
Si       6.60793462       7.89121030       5.00181873       14
Si       4.07789978       4.87774254       7.40884355       14
Si       6.16697103       2.99867457       7.85074004       14
Si       7.92417289       2.66530588       9.51519573       14
Si       1.06253511       0.84929887       5.87825954       14
Si       8.86105254       3.23971912       1.87311515       14
Si       4.82491131       7.29057579       9.55769838       14
Si       7.34717195       7.90328251       1.47197766       14
Si       1.28490826       8.10775501       0.89330638       14
Si       3.33416451       2.18422743       1.19131803       14
Si       4.89296886       9.44353984       4.76335077       14
Si       9.14617679       0.95707924       1.63834549       14
Si       8.06945043       1.10188366       5.13485746       14
Si       6.16996965       6.31820138       3.02164177       14
Si       5.39513759       9.37261695       1.04242771       14
Si       0.81875627       3.08991033       5.45535431       14
Si       1.29420398       9.05697342       3.15155972       14
Si      11.00232198       6.45089583       0.00304245       14
Si       2.97220898       4.32015488       5.38942911       14
Si       2.92344255       8.12295912       4.69607065       14
Si       0.44215082       0.76080518       1.43798221       14
Si       8.36339284       3.19820490       4.16212765       14
Si       8.17443542       0.53959372      10.56832185       14
Si       4.21624718       0.97498543      10.46297036       14
Si       8.93305272       7.82547390      10.87372564       14
Si       6.10111247      10.63153718      10.31959195       14
Si       7.38617621       4.27733016       0.28001660       14
Si       0.22525293       5.71244702       3.56866763       14
Si       6.52256282       4.51252184       4.43365816       14
Si       6.20785220       5.23281235       6.63358947       14
Si       0.59753704      10.05290366      10.83647613       14
Si       7.82337487      10.90451146       3.24021889       14
Si       2.87303243       6.87590010       8.12707945       14
Si       3.96098695       2.88374972       8.91887036       14
H        0.70634804       2.82859734       4.00398937        1
H        1.67626136       1.87435902       9.06393688        1
H        9.94094411       1.47897444       7.44197274        1
H        5.63633762       3.48450639       2.16586922        1
H        3.56093785       2.07603281       7.68520517        1
H        9.64830110       3.88753189       7.63957063        1
H        9.43134546       4.70337839       9.81897805        1
H        3.22622533       9.39116396       9.88399256        1
