72
Lattice="11.105996452100001 0.0 0.0 0.0 11.105996452100001 0.0 0.0 0.0 11.105996452100001" Properties=species:S:1:pos:R:3:Z:I:1 pbc="F F F"
Si      10.79736081       8.07030559       6.22306742       14
Si      10.92446894       4.50323723       1.64368747       14
Si      10.12488162       5.98552126       7.18510215       14
Si       5.10569311       4.00230126       0.52465283       14
Si       1.42744262       3.01639974       0.60018138       14
Si       3.49551243       7.61811384       0.51518830       14
Si       1.66062412       0.06709088       3.23843082       14
Si       4.79094917       2.58306597       4.72394670       14
Si       9.91115782       2.20701693       8.50824835       14
Si       2.64091711      10.36513764       6.84726884       14
Si       4.00829850       5.76196866       1.93683025       14
Si       1.99212701       8.07321536       6.47204164       14
Si       9.49173987       9.99195395       9.90861455       14
Si       4.99981965      10.54492151       6.55703584       14
Si       5.76526714       9.30197171       8.41280342       14
Si       9.63344128       9.60353283       7.66487009       14
Si       0.65685416       5.59995438       9.07303270       14
Si       0.64563044       3.16778558       9.44445053       14
Si       7.36048804       6.04099571      10.28520778       14
Si      10.08887598       0.48032435       6.65843358       14
Si      10.72834815       8.02524857       3.89086369       14
Si      10.25315588       4.58790935       5.21520934       14
Si       8.37987414       8.77028323       3.31886045       14
Si       6.10277837       1.34106018       6.33143973       14
Si       5.55105468      10.65967977       3.06747622       14
Si       2.63838494       5.44350421       3.82434988       14
Si       7.58910498       8.55630400       7.34325154       14
Si       3.71483365       1.16380847       3.04478667       14
Si       2.05144413       0.06710898       8.94680194       14
Si       7.87171927       6.30816156       8.02092833       14
Si       6.92647681       7.42813467       4.93312814       14
Si       3.69174428       4.67816778       7.60386485       14
Si       6.49117728       2.89940918       8.06331992       14
Si       7.90441532       2.45370333       9.71121657       14
Si       1.11037308       0.59995592       5.51162839       14
Si       8.87329135       3.53895909       2.38010389       14
Si       4.05750917       8.26577113       9.43649864       14
Si       7.80536094       8.56395603       1.21005384       14
Si       1.19405010       8.41907831       0.53496363       14
Si       3.71531121       2.08533964       0.98413566       14
Si       5.07661761       8.84932461       4.93992501       14
Si       8.98587284       1.16870622       1.67816049       14
Si       8.22161369       1.36488254       5.35633324       14
Si       6.25350895       6.34081319       2.99060051       14
Si       5.57850870       9.47225995       0.99941085       14
Si       1.02638621       2.98180456       5.84187630       14
Si       1.38921578       9.05187577       3.00309476       14
Si       0.04394832       6.42590734       0.07330269       14
Si       3.14049815       3.86439810       5.59616723       14
Si       3.06394451       7.81302408       4.31867778       14
Si       0.36901783       0.96855839       1.57877293       14
Si       8.27937598       3.57820768       4.64435002       14
Si       7.81075846       0.38402759      10.58505858       14
Si       3.85674607       1.24067308       9.95289416       14
Si       9.12930678       7.81390145      10.77557085       14
Si       5.56008385      10.75680171      10.21045332       14
Si       7.51426167       3.88946434       0.33544107       14
Si       0.09036649       5.91603104       3.77517253       14
Si       6.29670017       4.72562370       5.04871935       14
Si       6.08958444       5.00319587       7.17486242       14
Si       0.45719833      10.66080148      10.74795023       14
Si       7.79356637       0.04396264       3.56178191       14
Si       2.72515609       6.66045487       8.31632563       14
Si       4.65320150       3.49010381       9.45685593       14
H        2.88076221       9.27354036       9.20391686        1
H        7.29288584       9.28707857       5.99035237        1
H        4.14399156       8.71194343       1.57792887        1
H        7.45186818       5.82004191       2.12295565        1
H        1.90364553       2.58333252       8.77279319        1
H        9.79247915       3.19139693       7.40304622        1
H        0.92659327       2.79872221       7.34851578        1
H        6.42387494       7.32884706      10.65389355        1
