72
Lattice="11.105996452100001 0.0 0.0 0.0 11.105996452100001 0.0 0.0 0.0 11.105996452100001" Properties=species:S:1:pos:R:3:Z:I:1 pbc="F F F"
Si      10.51408016       8.10175778       6.44588702       14
Si      10.92713438       4.62722457       1.65567085       14
Si      10.10915553       5.77042032       7.46482888       14
Si       5.17779324       4.19758910       0.88681937       14
Si       1.17688023       2.89945360       0.74861413       14
Si       3.99968024       8.01842948       0.64557158       14
Si       1.12187223       0.31458734       3.29637081       14
Si       4.79240406       2.53167853       4.59241838       14
Si       9.96383356       2.16470309       8.38283944       14
Si       2.64183891       0.08372800       6.88737259       14
Si       4.22502091       6.04134000       2.04589114       14
Si       1.81917332       8.48292668       6.67886862       14
Si       9.62625570       9.74230225       9.70858445       14
Si       4.72504619      10.38733853       6.74817003       14
Si       5.57705381       9.14988619       8.68847646       14
Si       9.24209928       9.71855763       7.43685287       14
Si       0.71040062       5.50595323       8.96610416       14
Si       0.89541430       2.99353250       9.40713439       14
Si       6.53380209       5.66861165      10.18616451       14
Si       9.74543414       0.54366629       6.66493059       14
Si      10.40427517       8.11160879       3.92474809       14
Si      10.40484158       4.47671611       5.49787917       14
Si       8.44214546       8.66778599       3.12922556       14
Si       5.98626536       1.48100684       6.34498905       14
Si       5.35771038      10.63113736       2.72467853       14
Si       2.74544675       5.86264451       3.85254800       14
Si       7.41599581       8.36835722       7.41506291       14
Si       3.46013983       1.04685567       2.70819723       14
Si       2.38843338      10.99130483       9.20208437       14
Si       8.23631803       6.46264597       8.42208803       14
Si       6.88456278       8.23936107       4.87588783       14
Si       4.36206891       5.67434234       6.79741402       14
Si       5.67284303       2.43672226       8.61692053       14
Si       7.80460573       2.35470447       9.43779804       14
Si       0.64332373       0.73600549       5.65100864       14
Si       8.78283301       3.59719893       1.90978715       14
Si       4.56021099       6.85673115       9.71739150       14
Si       7.75649456       7.61650347       1.26864908       14
Si       1.62335240       8.11865000       0.69469896       14
Si       3.50729589       2.62260332       0.91252864       14
Si       4.99171227       9.50321236       4.78082050       14
Si       8.86212982       1.14272929       1.52148820       14
Si       8.09040745       1.07224842       5.31790649       14
Si       5.98985260       6.36275864       3.90309139       14
Si       5.99320661       9.14366683       1.02789329       14
Si       1.16614073       2.85270846       6.27869735       14
Si       1.47754177       9.09004708       2.97284202       14
Si       0.16160669       6.49904032       0.03732070       14
Si       3.18800960       4.12893183       5.48015400       14
Si       3.15522470       8.28532879       4.59636101       14
Si       0.01157656       0.86047484       1.21366329       14
Si       8.74301801       3.21570795       4.34314429       14
Si       7.95729097       0.32854425      10.58349264       14
Si       4.16700319       1.37785434       9.98406869       14
Si       9.23717932       7.49742498      10.38265180       14
Si       5.78546894      10.81966165      10.40901743       14
Si       7.29133100       3.87351612       0.09396695       14
Si       0.20980560       5.90450301       3.66726666       14
Si       6.64506196       4.14032658       4.47276238       14
Si       6.33669287       4.87770922       7.70835006       14
Si       0.69200242      10.30154471      10.52475302       14
Si       8.19939059      10.96531680       3.38522988       14
Si       2.60548898       6.61704153       7.96756402       14
Si       4.23773728       3.93396606       9.72643178       14
H        5.15955720       6.69622729       5.90233734        1
H        9.55665442       3.49735602       7.73779206        1
H        1.74585154       2.57051620       8.17101477        1
H        3.28434301       9.89226652       9.16816666        1
H        6.79490407       6.41331314       1.97868875        1
H        6.56975220       0.42855264       3.45091075        1
H        6.50270530       3.99833642       6.28154049        1
H        2.44257512       3.65771551       9.30830212        1
