72
Lattice="11.105996452100001 0.0 0.0 0.0 11.105996452100001 0.0 0.0 0.0 11.105996452100001" Properties=species:S:1:pos:R:3:Z:I:1 pbc="F F F"
Si      10.64384262       7.90864671       6.32366553       14
Si      10.54877529       5.04814184       1.98893959       14
Si      10.02268424       6.06247471       7.36860653       14
Si       3.02017578       4.19055901       0.54074208       14
Si       0.63506642       3.46089504       0.76640149       14
Si       3.59083520       7.88355826       0.52642645       14
Si       1.75202647       0.44540599       3.38678472       14
Si       4.80758596       2.55020333       4.63911910       14
Si      10.11454194       2.48755440       7.99140860       14
Si       2.51889553      10.68314674       7.06203660       14
Si       4.02996630       5.70644978       1.84963707       14
Si       1.87476994       8.64230884       6.67495931       14
Si       9.98606777       9.88781302       9.84991936       14
Si       4.92492081      10.49474462       6.73861888       14
Si       5.61268185       9.08770372       8.42649711       14
Si       9.43079016       9.73378395       7.60017766       14
Si       0.54136846       5.83512385       9.00677432       14
Si      10.92536853       3.86243234       9.95874702       14
Si       7.39707119       4.34050106       9.70749606       14
Si       9.83825806       0.77473210       6.51474420       14
Si      10.73141340       7.85864751       3.97395876       14
Si       9.88390371       4.06844857       6.03113359       14
Si       8.36049418       8.47341995       3.37993232       14
Si       5.95384696       1.22022694       6.14087194       14
Si       5.84980598      10.61985367       2.95587206       14
Si       2.83547195       5.91474274       3.95018082       14
Si       7.44112868       8.40466272       7.50340000       14
Si       4.00582186       1.09571761       2.74090439       14
Si       2.63228775      10.71397699       9.44440611       14
Si       8.36152703       6.77475779       8.97019117       14
Si       6.99035850       7.72852966       5.27287168       14
Si       4.23650451       5.32360387       7.24193153       14
Si       5.98504370       2.47146181       8.32689854       14
Si       8.09791510       1.89048493       8.95647526       14
Si       1.00564798       0.70758191       5.73269325       14
Si       8.76569646       3.53859259       2.00679803       14
Si       4.47721588       7.14560922       9.58660729       14
Si       7.31555318       7.66846843       1.48188421       14
Si       1.46261531       8.70207020       0.93392434       14
Si       4.58453312       2.53311120       0.65297373       14
Si       5.11525538       9.24569762       4.71186337       14
Si       9.19468778       0.92677541       1.47546495       14
Si       8.01302086       1.34278161       5.22930285       14
Si       6.57099607       5.43668513       2.14873266       14
Si       5.25533531       9.11462465       1.25638806       14
Si       0.77695330       3.23564322       5.20903441       14
Si       1.23191044       9.21420102       3.14284151       14
Si      11.03702821       6.71014310       0.40524004       14
Si       2.95475036       3.92604749       5.32494769       14
Si       2.87375432       8.16738311       4.65069154       14
Si       0.48535870       1.33135354       1.59585395       14
Si       8.41305886       3.37909937       4.50384806       14
Si       8.04881549       0.23393782      10.27716704       14
Si       4.75846413       0.84010866       9.91759930       14
Si       9.05785080       7.74838718      10.83369963       14
Si       6.07203697      10.15312417      10.30543180       14
Si       6.68456599       3.74026638       0.70054738       14
Si       0.53109541       5.45682030       4.13904939       14
Si       6.31304820       4.48532326       4.60061461       14
Si       6.29892137       5.71381305       6.43515863       14
Si       0.88335652      10.62059777      10.99284856       14
Si       8.10372354      10.97035892       3.44458033       14
Si       2.62546867       6.94310248       8.17495740       14
Si       4.61513014       4.41320092       9.44710487       14
H        0.43674442       3.23217815       3.59298976        1
H        1.65691472       2.07100179       8.81525141        1
H        2.37368462       2.18036254       9.09333446        1
H        6.79444872       6.17306822       9.28139229        1
H        2.07204576       2.43022525       8.42967343        1
H        7.34718306       5.42321355       7.58590645        1
H        9.51708375       4.43783402      10.31339480        1
H        2.98194894       9.38211258       9.75138696        1
