72
Lattice="11.105996452100001 0.0 0.0 0.0 11.105996452100001 0.0 0.0 0.0 11.105996452100001" Properties=species:S:1:pos:R:3:Z:I:1 pbc="F F F"
Si      10.93950646       7.95004986       6.38770271       14
Si      10.91270769       4.47641625       1.51581303       14
Si      10.05940066       5.84286473       7.07429762       14
Si       4.85640792       3.98088890       0.42342944       14
Si       1.13351132       2.89582194       0.55409371       14
Si       3.83976500       7.89478643       0.58453525       14
Si       1.57366417       0.46277243       3.44394729       14
Si       4.84820059       2.64943541       4.55741228       14
Si      10.14200707       2.70171133       8.36831280       14
Si       2.38476841      10.55874848       7.06880015       14
Si       3.90964393       5.79681927       1.63571337       14
Si       1.96188538       8.16297403       6.64379588       14
Si       9.50296803       9.76947863      10.15427919       14
Si       4.60943277      10.41415951       7.04859834       14
Si       5.72308656       9.18616948       8.70776758       14
Si       9.80773878       9.65204382       7.69473411       14
Si       0.47321096       5.78171512       9.08437192       14
Si       0.96366509       3.33299838       9.45656718       14
Si       7.21255617       6.13615189      10.35705248       14
Si       9.91485612       0.82813862       6.75481142       14
Si      10.48782558       8.12667963       4.05022363       14
Si      10.40256485       4.42665028       5.27153896       14
Si       8.22857715       8.79979186       3.41263948       14
Si       5.91881864       0.99768942       6.15764199       14
Si       5.38751888      10.71650916       3.13351247       14
Si       2.67044795       5.93629948       3.76022385       14
Si       7.70177531       8.47811778       7.49468180       14
Si       3.75624791       1.12221652       3.08311346       14
Si       2.42392815      10.57787300       9.47378147       14
Si       7.81370155       6.00005901       8.11034271       14
Si       6.84051639       7.79554324       5.28707625       14
Si       4.03946192       4.86101691       7.12497428       14
Si       6.73348791       2.64220540       7.58364083       14
Si       8.09501644       2.71030737       9.56436198       14
Si       0.99376789       0.85877562       5.56990155       14
Si       8.79074048       3.49250270       2.03344131       14
Si       4.32259820       7.45933141       9.53231007       14
Si       7.25518098       7.88111494       1.43998129       14
Si       1.44995447       8.42781873       0.83093955       14
Si       3.54115807       2.31240173       1.07730498       14
Si       4.90122061       9.30107212       5.05369484       14
Si       9.06331495       1.15524575       1.71010133       14
Si       7.95924563       1.33290838       5.37429164       14
Si       5.93441146       6.18255274       2.26305779       14
Si       5.43254259       9.32271771       1.21277481       14
Si       1.37006904       3.13304602       5.97583683       14
Si       1.39068177       9.22952729       3.06525502       14
Si      11.00636456       6.55504786       0.04953374       14
Si       3.19603923       4.17496619       5.15518143       14
Si       2.83423919       8.10249077       4.48666708       14
Si       0.42961770       0.93673971       1.45074300       14
Si       8.55945810       3.45276545       4.22195566       14
Si       8.05909964       0.58582465      10.73852124       14
Si       3.87603719       0.99138677      10.47725267       14
Si       8.90067874       7.66542539      10.89685943       14
Si       5.93096860      10.87350352      10.74078686       14
Si       7.15272817       4.02982192       0.41924470       14
Si       0.20613396       5.71292457       3.45628605       14
Si       7.22515037       5.54507965       4.67288133       14
Si       6.41653387       4.64593818       6.70363499       14
Si       0.45346228      10.28931700      10.98604058       14
Si       7.74964216       0.08830433       3.37948808       14
Si       2.72471185       6.48413607       8.04247397       14
Si       4.28528205       2.87947391       8.80395661       14
H        3.42320129       9.28263617       9.62892114        1
H        8.72927989       6.50071733       4.91289301        1
H        5.84059911       2.98840153       3.49563460        1
H        5.37552440       6.34738794      10.12604775        1
H        2.26556775       3.03636832       8.62812648        1
H        9.93526894       3.88876466       7.50765360        1
H        0.97834389       3.35619881       7.45873169        1
H        4.36399025       3.66955450      10.01200027        1
