72
Lattice="11.105996452100001 0.0 0.0 0.0 11.105996452100001 0.0 0.0 0.0 11.105996452100001" Properties=species:S:1:pos:R:3:Z:I:1 pbc="F F F"
Si      10.65664784       7.91587671       6.64078615       14
Si      10.30505420       4.84918902       1.99681374       14
Si      10.11845125       5.83966621       7.76296935       14
Si       6.12283580       4.47358422      10.88538694       14
Si       1.50697266       2.72671093       0.79336685       14
Si       3.47720975       7.81014763       0.43048286       14
Si       1.34476958       0.43157680       3.40500966       14
Si       4.71354038       2.61689484       4.32336451       14
Si       0.74837868       2.14285759       8.62554989       14
Si       2.30528279      10.61471159       6.63558855       14
Si       3.13322372       5.47556722       1.62328576       14
Si       1.84677173       8.22206904       6.84609160       14
Si       9.62928763       9.87414154      10.15494555       14
Si       4.49209791      10.72905893       6.74090671       14
Si       5.75099593       9.47213778       8.50330618       14
Si       9.42934638       9.68209665       7.69488960       14
Si       0.69064527       5.83391330       9.45088091       14
Si       1.78215704       3.85521344      10.04283052       14
Si       6.07002678       5.85214935       8.96609306       14
Si       9.39412926       0.57853912       6.82511238       14
Si      10.33709500       8.00378068       4.37028735       14
Si      10.41861301       4.39463169       5.95330276       14
Si       8.45651662       8.58403567       3.26671780       14
Si       5.68795829       1.36625968       5.99159624       14
Si       5.46710445      10.49633278       3.11429910       14
Si       2.50002644       5.39790299       3.84407413       14
Si       7.38652050       8.33278471       7.44261689       14
Si       3.67510750       0.98431447       3.01210172       14
Si       2.10493061       0.25650298       8.83347635       14
Si       8.28894935       6.76108631       8.80494505       14
Si       7.05971545       8.07682481       5.07328582       14
Si       3.69067810       4.79787932       7.22372880       14
Si       6.96890171       3.11763090       8.61578772       14
Si       9.32783757       1.86214243       8.64413022       14
Si       0.52840332       0.78087816       5.45676477       14
Si       8.55015128       3.36429508       2.29134476       14
Si       4.43524632       7.52857730       9.27756073       14
Si       7.27723749       7.68012973       1.45232005       14
Si       1.37843186       8.60599223       0.87095001       14
Si       4.23306165       2.78330709       0.89822967       14
Si       4.77195792       9.10558437       4.88465047       14
Si       9.01250501       1.18356604       1.56573449       14
Si       7.98558905       1.25363377       5.26750748       14
Si       5.87928130       5.61212655       1.89225078       14
Si       5.50276580       9.17204265       1.16304216       14
Si       0.98039627       2.89201258       6.40931498       14
Si       1.12531509       9.04617840       3.30063551       14
Si      10.78164583       6.70001443       0.32704494       14
Si       2.83610500       3.51513673       5.14548590       14
Si       2.61521783       7.78111655       4.64810385       14
Si       0.18409855       0.90326069       1.48942518       14
Si       8.48711364       3.55936080       4.80691960       14
Si       8.10611133       0.78264734      10.55337317       14
Si       4.08961660       1.19042955      10.06492034       14
Si       8.77082743       7.86425604      10.84345070       14
Si       5.87267323      10.95221172      10.42855288       14
Si       8.56216796       4.08190904      10.36848055       14
Si       0.12109534       5.79400946       3.95251308       14
Si       6.36209228       4.43090387       4.27125518       14
Si       6.06509572       4.53414522       6.86298383       14
Si       0.66645419      10.49099079      10.69431938       14
Si       7.90810252      10.93426443       3.37230250       14
Si       2.58457639       6.50840268       8.10702202       14
Si       4.33308226       3.65309541       9.68317393       14
H        7.47510193       4.13882727       1.57809546        1
H       10.03996517       3.32882253       0.10982742        1
H        5.34231747       2.02174670       0.97258543        1
H        5.74386588       1.73343503       7.89260965        1
H        6.84424801       6.55252680       4.82963136        1
H        3.65207366       1.20261283       0.38827785        1
H       10.00911271       2.67932164      10.75992250        1
H        0.31378660       3.78193608       1.74766181        1
