72
Lattice="11.105996452100001 0.0 0.0 0.0 11.105996452100001 0.0 0.0 0.0 11.105996452100001" Properties=species:S:1:pos:R:3:Z:I:1 pbc="F F F"
Si      10.74996042       8.04839346       6.49214350       14
Si      10.99447004       4.80473172       1.56475716       14
Si      10.44477874       5.94866046       7.38767552       14
Si       4.74702496       4.05282244       0.32066677       14
Si       1.27231406       2.66104117       0.80976152       14
Si       3.71175729       7.85258364       0.78747734       14
Si       1.19719310       0.35946334       3.59582179       14
Si       4.68878511       2.78582815       4.17378895       14
Si       9.87083195       2.53485484       8.29750096       14
Si       2.40147182      10.61446726       6.94071469       14
Si       4.43604595       5.87032986       1.78887617       14
Si       2.09944425       8.47222050       6.77646811       14
Si       9.64105999       9.65138857      10.09411801       14
Si       4.77476774      10.72813713       6.55432597       14
Si       5.53707223       9.33578947       8.29902248       14
Si       9.55653225       9.82708543       7.67826392       14
Si       0.98910782       5.98063462       8.91051865       14
Si       0.75891605       2.37761614       9.47371484       14
Si       7.79415499       5.64523353      10.18837460       14
Si       9.90966962       0.71734520       6.66872884       14
Si      10.66234521       7.89636348       4.19038131       14
Si      11.02860987       4.32185410       5.30233589       14
Si       8.39088018       8.70725670       3.78275792       14
Si       5.81225661       1.64812987       5.76607787       14
Si       5.73080523      10.88331012       3.17580411       14
Si       2.78943760       5.78562443       3.60439562       14
Si       6.61002254       7.47283630       7.25420366       14
Si       3.49517925       1.13393334       2.98985641       14
Si       1.85737795       0.29929550       9.18470349       14
Si       8.11564027       5.39437128       7.71275914       14
Si       6.64659459       7.54127145       4.80110005       14
Si       4.22218888       4.00042435       9.05939453       14
Si       5.92178394       3.12954763       7.52084753       14
Si       7.62968629       2.88972475       9.34398569       14
Si       1.02772004       1.02789662       5.69035719       14
Si       8.87099241       3.48402883       1.85948809       14
Si       5.04717562       6.30879460       8.35948353       14
Si       7.39252884       8.04925973       1.73234664       14
Si       1.53441558       8.32356674       0.79112344       14
Si       3.54630015       2.07467788       0.84628248       14
Si       5.04923023       9.29847332       4.79957853       14
Si       8.91375049       1.31275099       1.63548014       14
Si       8.34667832       1.30446592       5.15365991       14
Si       6.36444675       6.03536497       3.02648399       14
Si       5.51120636       9.61870362       1.30554320       14
Si       1.72224019       3.34812475       6.35073085       14
Si       1.36772568       9.28360239       3.21770703       14
Si       0.06078123       6.60187074      11.02013599       14
Si       3.48506169       4.55032665       5.29400639       14
Si       3.08095890       8.16225214       4.58699865       14
Si       0.10827869       0.63902460       1.42713165       14
Si       8.78358822       3.57687496       4.42193023       14
Si       8.02828050       0.62586066      10.57360830       14
Si       4.00052430       0.42016095      10.37094608       14
Si       8.93004299       7.59944466      10.92792290       14
Si       6.00511224      10.54280027      10.05250384       14
Si       7.16397854       3.85766787       0.38178640       14
Si       0.44150556       5.68137244       3.71608862       14
Si       7.10709363       4.56342062       5.90080472       14
Si       4.70883144       6.35160822       6.02459215       14
Si       0.66177412      10.18378782      10.86117587       14
Si       8.13603088      11.02428964       3.35054586       14
Si       2.94837551       7.18358063       8.39758820       14
Si       2.00858609       4.02992187       8.56890930       14
H        7.29760589       4.99361140       2.59855884        1
H        6.38332694       6.77334733      10.27455713        1
H        5.01059247       3.74078836       2.91926670        1
H        4.20069878       7.18834510      10.57147595        1
H        9.95692564       3.41321700       6.83493008        1
H        6.59981613       0.29027521       0.76326183        1
H        3.99059554       8.86798268       8.36771307        1
H        7.93060326       9.60926352       7.86647724        1
