72
Lattice="11.105996452100001 0.0 0.0 0.0 11.105996452100001 0.0 0.0 0.0 11.105996452100001" Properties=species:S:1:pos:R:3:Z:I:1 pbc="F F F"
Si      10.78958661       8.06802886       6.33678171       14
Si      10.69701813       4.62789093       1.55559471       14
Si      10.42174490       5.87958116       7.14773047       14
Si       4.56113279       4.14159267       0.22647681       14
Si       1.06904323       2.94659855       0.62335626       14
Si       3.84072012       7.90535933       0.96340743       14
Si       1.98696272       0.26378963       3.59738773       14
Si       5.11551081       2.95580543       4.52606005       14
Si       9.32351734       2.49952667       8.26241712       14
Si       2.31265717      10.68040356       7.23002590       14
Si       3.93369952       5.76266833       1.74492974       14
Si       2.09991070       8.42816301       6.69155166       14
Si       9.92340774       9.77776370       9.78187292       14
Si       4.63765310      10.75751250       6.43038305       14
Si       5.41341806       9.20933659       8.18715178       14
Si       9.37248368       9.63168653       7.59098189       14
Si       0.48785533       5.49036041       9.12958443       14
Si       0.25039246       2.97451903       9.47900129       14
Si       7.17114191       6.47131975      10.24944648       14
Si       9.81310298       0.70992417       6.71149803       14
Si      10.93013300       7.93596746       3.96096474       14
Si      10.61613316       4.28110619       5.42517931       14
Si       8.72270514       8.84968000       3.78961032       14
Si       6.09484869       1.38997099       6.25369775       14
Si       5.75818151      10.59629785       2.94793127       14
Si       2.60551119       5.75707091       3.59753211       14
Si       7.48868456       8.17413555       7.34457315       14
Si       4.23148460       1.18104498       3.04169920       14
Si       2.44450756      10.82854645       9.45873285       14
Si       7.95052742       6.06730582       7.99971588       14
Si       6.83780653       7.89220983       4.91476993       14
Si       3.92030569       5.41429544       7.13725751       14
Si       5.61993407       2.12097878       8.37396575       14
Si       7.57438953       2.43986525       9.72250026       14
Si       0.90699119       0.72067144       5.82133021       14
Si       8.76373069       3.33725198       1.80547963       14
Si       4.07406821       7.97155107       9.57063687       14
Si       7.58821650       7.80961454       1.97004829       14
Si       1.57955035       8.12710166       1.06931199       14
Si       3.47156790       2.19219043       0.97939562       14
Si       4.86573695       9.30164963       4.73837339       14
Si       9.10141962       0.96080863       1.60383916       14
Si       8.19197179       1.21736159       5.25135936       14
Si       5.88898794       6.56572072       3.00589347       14
Si       5.69511056       9.26537745       1.27419097       14
Si       1.29157186       2.96819972       5.86122295       14
Si       1.63609097       9.07659772       3.18054637       14
Si      10.77008448       6.62296103       0.19723250       14
Si       3.28146656       4.08860596       5.39952446       14
Si       3.01507813       7.82158680       4.51951862       14
Si       0.39274579       0.87633642       1.54752065       14
Si       8.70027103       3.45886264       4.28379385       14
Si       8.17700090       0.01153324      10.61372316       14
Si       4.41508894       0.95440602      10.26518367       14
Si       9.06650237       7.93587861       0.16415551       14
Si       5.92140634      10.32814357      10.28487460       14
Si       7.01229284       4.22057851       0.10991905       14
Si       0.18792790       5.59532318       3.74390915       14
Si       6.76801645       4.78963867       4.24939857       14
Si       6.22506650       5.80786974       6.36777855       14
Si       0.86902534      10.09653912      10.96768237       14
Si       8.08438800      10.92141479       3.34615899       14
Si       2.44873895       6.75790999       8.26090670       14
Si       4.44599692       4.00139057       9.00937312       14
H        3.26686217       9.53249887       9.30758023        1
H        6.47329662       6.19825662       1.48943629        1
H        5.84833999       3.32015985       3.25104724        1
H        5.72346417       6.80363338      10.25495505        1
H        1.66084624       2.22846261       9.21056936        1
H        8.86017517       3.46605933       7.28481178        1
H        1.17612502       3.15414742       7.40092498        1
H        3.10249343       3.25002548       9.17214261        1
