72
Lattice="11.105996452100001 0.0 0.0 0.0 11.105996452100001 0.0 0.0 0.0 11.105996452100001" Properties=species:S:1:pos:R:3:Z:I:1 pbc="F F F"
Si      10.64781857       8.18890653       6.47081998       14
Si      10.90967575       4.68154400       1.81785171       14
Si       9.89431003       6.09341601       7.14989614       14
Si       5.10573754       3.90589010       0.85276727       14
Si       1.19121807       2.95172953       0.99310042       14
Si       3.90104789       7.72654169       0.48221681       14
Si       1.45306415       0.15074724       3.55786149       14
Si       4.63974103       2.81528125       4.58832027       14
Si       9.94676365       2.09427996       8.70405818       14
Si       2.31833234      10.42421044       7.07778490       14
Si       4.25753927       5.76815470       1.95757625       14
Si       1.92901163       8.26398307       6.61925163       14
Si       9.71082786       9.87785094      10.01516548       14
Si       4.53964269      10.50642813       6.74598215       14
Si       5.65356302       9.47289299       8.55886948       14
Si       9.56319585       9.73710465       7.71558007       14
Si       1.52466451       5.31779543       9.71770247       14
Si       0.86712288       2.95179616       9.66320535       14
Si       7.29536248       6.29546741       9.84734277       14
Si       9.72323326       0.74626188       6.63633265       14
Si      10.47997364       7.85466046       3.99236139       14
Si      10.19546023       4.38970063       5.54866689       14
Si       8.49181148       8.75268023       3.19245200       14
Si       5.83484620       1.34026055       6.04451631       14
Si       5.34389452      10.40589665       2.79450193       14
Si       2.74952265       5.99247361       3.64504357       14
Si       7.52105854       8.81399643       7.34311826       14
Si       3.67026528       1.07291034       3.00262831       14
Si       2.22214330      10.96463933       9.48510959       14
Si       7.73760326       6.50565950       7.51252913       14
Si       7.16952043       7.66413709       4.97750770       14
Si       3.57032242       4.85227649       7.18024883       14
Si       6.30545170       2.99839692       7.89417560       14
Si       7.98565569       2.75259901       9.51953818       14
Si       0.87062016       0.77448333       5.72555209       14
Si       8.76736236       3.53627144       2.07161262       14
Si       4.59627216       7.44809214       9.39460682       14
Si       7.63965948       7.76459083       1.32778851       14
Si       1.54120134       8.30548617       0.91323387       14
Si       3.48618339       2.32438510       1.01144753       14
Si       5.21201082       8.98892698       4.92569823       14
Si       9.14217863       1.21354113       1.54746512       14
Si       7.90734731       1.27901098       5.05001875       14
Si       6.11714953       6.53755592       2.97454124       14
Si       5.69740950       9.13573715       0.99521390       14
Si       0.93638210       3.01618873       5.91613099       14
Si       1.53208332       8.94533595       3.24691580       14
Si       0.13517441       6.50300516       0.11320675       14
Si       2.88641516       4.18152983       5.10484906       14
Si       3.13011404       8.09065178       4.57692552       14
Si       0.33689485       0.87637640       1.61041391       14
Si       8.38041833       3.55559587       4.52200636       14
Si       8.25885210       0.61887499      10.74953839       14
Si       3.89101917       1.15423511      10.20321221       14
Si       9.18992331       7.41647337      10.73196870       14
Si       6.01364164      10.79327380      10.39693411       14
Si       7.46902695       4.43211443       0.23552598       14
Si       0.25194841       5.82175223       4.00945352       14
Si       6.33990250       4.60894410       4.57426008       14
Si       6.00947689       5.03414828       6.76735009       14
Si       0.72045043      10.30452111      11.05378716       14
Si       7.81794404      10.99474769       3.10885716       14
Si       2.60144640       6.66670755       8.32494388       14
Si       4.15088839       2.92440877       8.39635544       14
H        2.83852610       5.13701202      10.50314075        1
H       10.16198675       5.42253609       8.55828087        1
H        0.71877898       3.05147248       7.41570706        1
H        3.19322942       9.78222831       9.35897879        1
H        7.16089107       6.18224177       1.85738906        1
H        6.01331957       3.57723035       2.08770521        1
H        2.08941554       2.31986496       8.76170940        1
H        3.74083278       2.17889655       7.25044983        1
