222
config_type=divacancy dft_energy=-23052.235448067117 dft_virial="40.20880349450147 -0.5587327532734695 3.472124966770847 -0.5587327532734695 37.52289533055115 -0.6026331838878136 3.472124966770847 -0.6026331838878136 38.532605234681064" pbc="T T T" Lattice="16.3199774331 0.0 0.0 0.0 16.3199774331 0.0 0.0 0.0 16.3199774331" Properties=species:S:1:pos:R:3:Z:I:1:dft_force:R:3
Si	1.4806511685886605	1.418806614105928	1.4228572325048234	14	-0.1291062538775117	-0.3567861146241806	-0.21233370442230107
Si	2.752902753347607	2.7627436997397665	16.311670564586553	14	0.05534458467937949	-0.003927106265994176	0.118780437801265
Si	4.098958172052262	4.109451917541746	1.3572982511583176	14	0.029470780511133325	0.04335706323472109	-0.08764640925852786
Si	2.768031372428091	0.00375196281186969	2.7659424153166543	14	0.03592682597002515	0.17365785264397357	0.02365494027695837
Si	4.102515927132678	1.3806896748131798	4.10147144857696	14	0.04195066862460009	-0.08099418846370873	0.048798293423750465
Si	0.00150470191933182	2.717733201979277	2.6974311500525	14	0.05920329954385772	0.022483544693098906	0.09013446787683516
Si	1.3601836231684894	4.073221567640264	4.065534858269274	14	-0.04455931208242233	0.023627686560564798	0.013242477951422681
Si	16.317056157139476	0.01142398420317	5.445845909606005	14	0.0059048004782520785	-0.0044241009243787995	0.011522151381711601
Si	1.3575658987882204	1.3716989992452848	6.79859251905823	14	0.006458359453679959	0.008349921637712901	0.003244734914026876
Si	2.7172925625885833	2.7281127076267286	5.439432158474797	14	0.02694621219727993	0.009403303487377569	0.01778047884148404
Si	4.074771965496408	4.090031144396356	6.797760200209143	14	-0.01082152518197125	-0.0034131423124965747	-0.010144038930112231
Si	2.714518166424956	0.00321013956109077	8.151698168013985	14	0.00867388090805156	-0.0060292419757472454	0.003059872441508229
Si	4.071099970573961	1.3557119493518202	9.51244156640843	14	-0.0004252608199524923	0.019949977510624987	0.0040119527415590625
Si	16.314999839982903	2.733057660788958	8.15256312681794	14	-0.009737290068464804	0.0005869833445898065	0.0033123549839467704
Si	1.354683790773535	4.082670834574029	9.517386519570659	14	0.015888402436387068	-0.014678440272725385	0.001469900911528657
Si	0.00412405829734437	0.00136435011340716	10.865090255996057	14	0.005416290467423943	-0.006565060324466105	0.008238335666818477
Si	1.3288851704472904	1.371478679549938	12.233748843445555	14	0.08850387288279725	0.028103466701878577	0.004529773353036885
Si	2.695260593053898	2.701625384252807	10.870328968752082	14	-0.00076953182232032	0.0329273745035404	0.03786518227088479
Si	4.059121107138065	4.069582212672683	12.20939943711537	14	-0.019478179684377817	-0.017326678752477905	-0.05422101165447478
Si	2.748773799057033	0.08728413530544873	13.582056419035977	14	0.05000594159262402	0.2178039881014481	-0.08728516896104706
Si	4.11305863255446	1.4044580899467465	14.966137385159756	14	-0.061584400180846856	0.0388185481235957	-0.07956054013719419
Si	0.00524197675151172	2.7151220055899805	13.629400673569402	14	-0.04556050049408799	0.03184879582173829	-0.09513989571409943
Si	1.3671702055075996	4.093490979612174	14.96411370795805	14	0.06165253447183079	0.027898549607862776	-0.0560776068061537
Si	0.006960470375217151	5.444360791659593	0.0024316766375319	14	0.012148986858763703	0.027441149971408434	-0.0009734204742080626
Si	1.3513838913365621	6.799751237455982	1.37297848547604	14	0.011157054426250574	0.028382174518582628	0.002334306520162441
Si	2.696843630864909	8.167773345785587	0.02454198206389578	14	0.02678397545157858	-0.04216072792925618	-0.03036681071520493
Si	4.076860922607845	9.517092759976864	1.3714068716492323	14	-0.001478899780149175	0.02239535578061783	-0.0036129171958720805
Si	2.719430479632319	5.44344687292334	2.7189898402416257	14	0.025677628832318864	0.03694189835041961	0.01476662918520646
Si	4.075245244841968	6.802574593551908	4.078182840779926	14	0.005559758144288206	-0.005737678632442453	0.009806452801576788
Si	0.00656879091682275	8.165765988561317	2.7283248673333587	14	0.006473271864536819	-0.010940310247762092	0.008616288148880243
Si	1.3657911674145027	9.514873243045962	4.092674980740519	14	0.010266937764415309	-0.008127521027520093	0.004313800506144447
Si	0.00010934384880177	5.430766250457821	5.4302276912025285	14	0.012524111124973307	0.01731562299960127	-0.0038926534547041912
Si	1.3531497128948236	6.793631245918569	6.787494934403724	14	-0.002841328489295642	-0.00817714336019895	0.0002144301837003498
Si	2.7232493543516645	8.157671279754501	5.446351828906431	14	0.004964804373205941	0.026525322256371685	-0.0045688541539031366
Si	4.075114685022503	9.534767295536911	6.797025801224653	14	-0.03540463447950308	-0.02661196850566068	-0.02789135051296636
Si	2.7077290558127864	5.443267353171575	8.154603123997077	14	0.004942178646388638	0.02664744975907872	0.0008595205085255028
Si	4.0551879925766885	6.82612432098787	9.49706814766645	14	0.03490661137899039	-0.07731750785589699	0.002607357905162167
Si	16.319651033551338	8.147536573768544	8.153705525238257	14	-0.0041106831858527485	-0.015418404383864	-0.002245860497149347
Si	1.359113032648878	9.511560287627043	9.501458221595954	14	-0.015472654706119126	0.007476774270990614	-0.007528967708989619
Si	16.316795037500547	5.432969447411289	10.886322546636519	14	-0.022105592211037143	0.005691141626147774	-0.00011210019195845624
Si	1.353188880840663	6.800028677072344	12.23919971590821	14	0.029760286970181998	-0.013518614662806586	0.01765963689143708
Si	2.70585225840798	8.167055266778533	10.88152447327119	14	-0.008466906929779638	0.007305538656668752	-0.0022296625336324137
Si	4.039129134782518	9.562853976699277	12.231284526853157	14	0.03684522479038205	0.015248711432734223	0.08952640146862015
Si	2.7321600620301374	5.450774542790802	13.59113032648878	14	-0.061255555810399924	-0.007778364925043984	0.008512158383414245
Si	4.061373264023833	6.834088469975224	14.970968098479954	14	-0.0382212803577253	0.03624332903493538	0.03227405664169077
Si	16.31850863513102	8.16287735255566	13.597952077055817	14	-0.0008752042509784061	0.0038844259176797177	0.00042834614633666996
Si	1.3533129126691545	9.519377556817497	14.964048428048319	14	0.011578715698754858	0.03246431843538174	0.0032933288045776743
Si	16.312845602961733	10.881067513903062	16.316044318538623	14	-0.01139950965794054	-0.01879272300602634	-0.003193569918155929
Si	1.3629873952914962	12.21602534795321	1.3682652759933607	14	0.04508150357294441	0.09119504882139624	0.04658097219565476
Si	2.7504710767100753	13.588666009896384	0.0736700101307567	14	0.05476788575607028	-0.08381571944203925	0.19156071609869668
Si	4.105600402867534	14.982669522299487	1.3847125492504389	14	-0.03606232322039695	-0.07471092128233087	0.023984555979001357
Si	2.722335435615411	10.873495044374105	2.732470141601366	14	-0.0005443029962753483	-0.013980642288837195	-0.0018113436980443218
Si	4.076306043375119	12.247832983970321	4.080157558049331	14	0.008443509871366292	-0.007797648214945094	0.008839460090669096
Si	0.06431866306159041	13.582301218697475	2.760556822763731	14	0.2298365038892091	-0.03954565670813358	0.0226293263647513
Si	1.3804579311336296	14.985998797695839	4.103935765169358	14	0.029808623750200786	-0.08864142701742518	-0.03848816108995667
Si	0.00910328341218318	10.863278738500982	5.459358850920612	14	-0.04584486474249637	0.029869301835756274	-0.018343293796064454
Si	1.3602097351323825	12.241549792658578	6.803096832829766	14	0.009804138806788654	-0.004787655216647737	-0.0069175588638584065
Si	2.722825034938404	13.601281352452169	5.449158865024924	14	-0.0035175291884945873	0.014107140670588478	0.0023476762678272113
Si	4.0810551568081515	14.964048428048319	6.801742274702819	14	-0.005711967579240973	-0.003054473120335918	-0.009222811893903173
Si	2.7206381579623686	10.888754223274052	8.163497511698116	14	-0.03569594071227585	0.024745088932701158	-0.01239169920098568
Si	4.061797583437094	12.265376959710904	9.522592592371819	14	-0.04347327719519178	0.037090508237924175	0.05737781476655259
Si	0.0029783958815407497	13.609849340604548	8.153020086186066	14	0.0036810514868560046	-0.008328581463555671	-0.0034072287702602345
Si	1.363080419162865	14.962938669582869	9.512082526904901	14	0.006947640796104139	-0.0051152140344346035	0.04046919773913077
Si	16.313824801607723	10.862658579358525	10.850206436577071	14	0.045283849561640055	0.031064351588561103	0.02716398481789647
Si	1.320323710285886	12.239118116021046	12.2211987807995	14	-0.021390310710971944	-0.040303618556513224	-0.023147661197293154
Si	2.707614815970755	13.623329641964288	10.900488287048452	14	0.01454294302235358	-0.00675892166560527	-0.05027025121953523
Si	4.083568433332849	15.011474282468908	12.233242924145129	14	0.02296357005637055	0.024006924595286642	-0.013336580406140101
Si	2.6925841167548694	10.913495309062633	13.61812356916313	14	0.006799545129663609	0.0021448160580675273	-0.024314428791576352
Si	4.0876321077136915	12.241223393109916	14.994517825915917	14	0.010930025826481497	-0.017411011006978762	0.05330389838677795
Si	16.244758657110843	13.57933098280465	13.558180292051352	14	-0.23182551096487564	-0.04127781036231734	-0.025850921330896847
Si	1.6315717918989963	14.693642721959286	14.681174259200398	14	0.10230813734667228	-0.12104789558310358	-0.07014798067066406
Si	5.440297117278751	0.013855660840701901	16.31974895341594	14	0.05316685847321406	0.005148381293064513	-0.00040623464058339655
Si	6.794071885309263	1.356516524239272	1.3751180345175193	14	0.02421441279462259	0.0021795259798895266	0.009573767770103388
Si	8.164509350298967	2.7014458645010433	0.0271564424486784	14	-0.04616728134964294	0.039348452930078215	-0.037824815917358465
Si	9.513192285370353	4.0795863588391725	1.3760727531973558	14	0.022244431898325135	-0.01155840396672569	0.0006474043196132862
Si	8.155663922530229	0.0005924151808215301	2.7265296698157178	14	0.0217924315830431	-0.010791957470789546	0.008552781847472584
Si	9.516978520134833	1.3548731025117589	4.077627961547201	14	-0.018672395277043407	0.013616573775504227	0.008535041220763564
Si	5.438958879129237	2.7329760609017923	2.717586322182379	14	0.0321285320805704	0.021870593184775605	0.01338260319137075
Si	6.800860995921432	4.086016429947814	4.076012283781323	14	-0.007696089554799245	-0.005531218875234562	0.008382574675278783
Si	5.4471351878232195	16.31661551774878	5.444931990869751	14	-0.001690501747997362	0.049931636648871736	0.009106855043964496
Si	6.798706758900263	1.3594035282471872	6.793370126279639	14	-0.005883460304094848	-0.019156020187763263	-0.0003316725862991022
Si	8.151029048939227	2.7062928977986735	5.418754747067059	14	0.04299659426883632	0.027941229956177236	0.020934710848241705
Si	9.489544638069791	4.074902525315872	6.782925340722455	14	-0.04001051255001634	-0.029700637326754563	-0.03306827107508452
Si	8.157540719935035	0.00884705976648351	8.153917684944886	14	0.001864565578171387	-0.017947600687293664	-0.001971780670021562
Si	9.51844731810381	1.3638327701225308	9.507529253201067	14	0.003567151521173445	-0.0012004490739771381	-0.009614648344693742
Si	5.424075059710249	2.7102749722923503	8.14487641744695	14	0.0006713155990906634	-0.01778253572574016	0.001214075932173923
Si	6.784214618939671	4.051434397767075	9.504836456924604	14	-0.02554213158194706	0.1231402610926401	-0.021808372436028022
Si	5.45718829392201	0.010054738096532909	10.854776030258337	14	-0.031136599648057265	-0.049329998003957085	0.027011004051347664
Si	6.802411393777576	1.36061773456821	12.232263725499145	14	-0.014708007983907086	0.04073247892391393	-0.0007795591330688976
Si	8.160282476143795	2.716003284371368	10.872972805096245	14	0.006498982917738299	-0.0040577184162576985	0.005639462409212796
Si	9.530964740795	4.044041447989881	12.250183060720687	14	0.02657365903639047	0.12489195514725696	0.02137694096330717
Si	8.158552558535888	0.00640232714700513	13.598164236762448	14	-0.0038528013222418967	-0.0028904366009104704	0.0003018477645853845
Si	9.516113561330878	1.3559143170719905	14.968340582113225	14	0.017235918734676677	0.01066417353637819	-0.0021666704532887866
Si	5.460697089070126	2.7508790761459028	13.580930340593094	14	0.012901549385971045	-0.03768854733539062	0.008000251314172764
Si	6.83459438927565	4.0731073277982315	14.97421577398914	14	0.014903926209302368	-0.062442120915648255	0.04757804683880818
Si	5.4530919795863015	5.458869251597619	16.297015224851627	14	0.005878318093454553	0.02562286428899971	0.0808808027190902
Si	6.79521428372958	6.803912831701422	1.3652672961389003	14	-0.004902069403394327	-0.004722606252047992	-0.05282978656574266
Si	8.157018480657175	8.161375914631813	0.01350804532137687	14	0.0011040326244715851	-0.010312960549645958	0.0005479025437235557
Si	9.51395932430971	9.51771291911932	1.371398711660516	14	0.0039481893296193895	0.0014382763160908354	-0.06447509389228935
Si	8.158242478964658	5.450888782632833	2.722612875231774	14	-0.0009986173063455139	-0.0016038554987083716	-0.0026667504380575874
Si	9.525007949031917	6.806915707549112	4.07609388366849	14	0.012080595457247763	-0.008471020698291877	0.02245937630308951
Si	5.4391873588133	8.161865513954806	2.7245059926140134	14	-0.00784341388964373	-0.006575601856278712	-0.0019974917232230428
Si	6.797939719960907	9.530409861562275	4.0752615648194	14	-0.006919615748114526	0.011741980886584262	0.004691238767142185
Si	5.434291365583371	5.44207599481896	5.431304809713113	14	-0.005126269787311241	0.027331106663706098	0.0033465506847047393
Si	6.776903269049641	6.828245918054174	6.776152550087719	14	-0.002636668505811855	-0.0768922470359445	0.03575584746623531
Si	8.160429355940694	8.170221342400554	5.425478577769496	14	-0.0033869170382310643	-0.004883043224025232	0.0064233924213259455
Si	9.50437949755648	9.557386784259187	6.768335280897264	14	0.08833160882634732	0.011727582696791434	0.03254942202147863
Si	8.089470094061575	5.418917946841391	8.115451498135071	14	-0.21902886267596663	-0.04601507191469017	-0.010369781977221233
Si	9.804226442934825	6.524400578204719	9.232961952866592	14	0.07324024903920616	-0.06508290318997235	-0.048094581897625936
Si	5.42492369853677	8.173485337887174	8.14714489431015	14	-0.01581846837167904	0.04655294714766515	-0.01806227198457227
Si	6.736168605376624	9.598219367796803	9.468459227226226	14	0.35912299224966315	-0.33902774728844975	0.35917929945617444
Si	5.391076065340522	5.4144952329570195	10.809749212520416	14	-0.0030177063142578	-0.04159585609041965	-0.21837837302996918
Si	6.510969236777277	6.523339779671566	12.52089884638095	14	-0.05550579298295277	-0.05798408140104351	0.06482707821061763
Si	9.795609494850149	9.802186445755687	12.515284774143964	14	0.04447857937536967	0.05013783929554761	0.05363531386254505
Si	8.226508944567316	5.409305480133295	13.637968661721779	14	0.2217676040629884	-0.008967758246144486	0.01151778050266735
Si	9.531356420253394	6.79185236837836	15.005566450638128	14	0.026956753729092536	-0.023659311156002626	-0.09783621386333874
Si	5.387257190621177	8.236839490282467	13.624161960813376	14	-0.014680240046449487	0.22016477700640805	0.04360003268747508
Si	6.793484366121671	9.525203788761115	14.986782156612628	14	-0.023877855108215208	0.021399052469060445	-0.07552853277413796
Si	5.448195986356372	10.87442528308779	0.023063392108456923	14	-0.01650443927109455	0.018559266642956894	-0.03427977590193829
Si	6.805838589038527	12.247278104737596	1.3689654030252405	14	-0.016172252463731416	-0.004198100766737783	-0.004741889541949102
Si	8.154505204132478	13.626887397044705	0.0218034898506216	14	0.04737312974479239	-0.02439541860916102	-0.02936150853502703
Si	9.520634195079847	14.975619292048387	1.3697487619420294	14	-0.009610791686713518	-0.008326010358235525	-0.0017002719482139246
Si	8.165619108764421	10.890369901039929	2.7251914316662034	14	0.013952874351379596	0.0015501193975172769	-0.008901937949948693
Si	9.534424576010815	12.26115008555573	4.065257418652911	14	0.025824696056631333	0.0024366365119043347	-0.006193792716236723
Si	5.450089103738612	13.600628553354847	2.730054784941267	14	-0.0076351543587117356	0.013464107230019444	-0.003886225691403821
Si	6.806279228429221	14.959642034141382	4.087273068210163	14	0.0090166092472273	-0.0012133046005778786	-0.003121064748127753
Si	5.4365108825142725	10.885702387494062	5.435678563665184	14	-0.0237613840372125	0.020414833352507763	-0.03269494658259901
Si	6.789437011718262	12.251586578779934	6.789012692305001	14	0.03224088938306087	0.03829687085413765	-0.03307161351200071
Si	8.166386147703774	13.60190151159463	5.4375553610699905	14	-0.021382340284479485	0.0028328438417391535	0.007959113629050394
Si	9.51080956866512	14.965941545430558	6.8020686742514815	14	0.0065033537967825504	0.024988315495987165	0.005378238108685751
Si	8.15430936440328	10.906706198450463	8.136879628504731	14	-0.06455042727816969	0.006208190906029552	-0.012054627293514268
Si	9.50118078197959	12.269326394249713	9.491568315271495	14	0.07802816136638592	-0.03403526378599221	0.002604272578777989
Si	5.436608802378871	13.60428422829986	8.158878958084548	14	-0.01752156853574513	0.04008636015696072	-0.013003622267180923
Si	6.8040597114983195	14.965011306716873	9.503955178143217	14	-0.00925366515774495	0.021694729580877474	-0.0029991943559527345
Si	5.407428682728488	10.914800907257279	10.883678710292358	14	-0.004324342037957054	0.011375084157399133	-0.07628443773826149
Si	6.757433535971953	12.283475814684213	12.230174768387707	14	-0.012919547123212081	-0.04010924299431003	0.0892322670199952
Si	8.150539449616236	13.612362617129245	10.874180483426294	14	-0.011061152197809052	0.018047616684247425	-0.002918975869964114
Si	9.510156769567796	14.96667594441505	12.232737004844704	14	0.01777353685711964	-0.02627129705074106	0.01100767320714997
Si	8.07980866742118	10.926290171370182	13.617111730562277	14	-0.2176530642191554	0.017395584375057872	0.048121578503487486
Si	9.477598414588762	12.24993826105919	14.968846501413651	14	-0.03603609794613144	0.022266543404078406	0.030534446782078586
Si	5.41286323521371	13.634557786438261	13.619445487335211	14	0.015555701407959905	-0.015299619318073159	-0.04261401379719829
Si	6.802705153371372	14.974493213605504	14.966610664505318	14	-0.02773039931992509	-0.014928865930907807	0.0023659311156002624
Si	10.877819838393874	0.00140025406375998	16.318932954544284	14	-0.049216869369870575	-0.01998905831149124	-0.0024412645014806012
Si	12.215046149307224	1.3904082213745907	1.344702492575451	14	0.05246571805240969	0.02374595740529161	0.07281755932457382
Si	13.576980906054285	2.7514013154237618	0.00550962438141456	14	-0.07090697096117178	0.0010158437119905058	-0.1140647735335814
Si	14.966218985046922	4.082785074416059	1.3484919913354168	14	-0.04950277628147104	0.03501022692339236	0.049661670590256196
Si	13.568984117112066	0.08282714946846913	2.7425232477001558	14	-0.03858020666041797	0.2111851916757909	0.07461039106431307
Si	14.976059931439082	1.387635457208707	4.090896103200311	14	-0.1011830216585755	0.035884659842774724	-0.03746691805679385
Si	10.872989125073678	2.7286349469045876	2.734118459322109	14	-0.013511158457378155	-0.001737038754292042	-0.008812977705871571
Si	12.23593572042159	4.089982184464057	4.08957418502823	14	-0.025347241798679834	0.02263395435432757	0.030968963581183617
Si	10.860536982292222	0.01381322889937584	5.461284608257718	14	0.019753802174697688	-0.04495654785438521	-0.031953696918800324
Si	12.228493810712097	1.3777732948458847	6.807013627413711	14	-0.0116627908427237	0.029635331251622807	-0.0026603226747572172
Si	13.595504080440852	2.731474622977947	5.4463191889515645	14	0.03536915322608503	-0.006073722097785807	-0.003818348510951912
Si	14.947385731089124	4.097636253880181	6.804989950212006	14	-0.03177114844106981	-0.002249717155129569	0.002363360010280114
Si	13.594818641388663	0.011525168063255221	8.153493365531626	14	-0.0022499742656615835	0.007588617352417055	-0.0019519831590564217
Si	14.970984418457386	1.3566177080993571	9.506876454103743	14	-0.0035890059163947038	0.001208676611001612	0.034925894668891504
Si	10.872597445615282	2.748610599282702	8.166924706959067	14	-0.008056044299619976	-0.038907251257140806	0.008810920821615453
Si	12.260415686571243	4.071524289987221	9.545587440575057	14	0.058914050195341065	-0.05227957002723097	0.03391904982552151
Si	10.866559053965036	16.319471513799574	10.864665936582796	14	0.001952754490652466	0.05492883694911155	0.0016974437323617616
Si	12.22420165664719	1.3653880639719052	12.21323463181215	14	-0.032731970499209145	-0.08243272189033159	-0.04036969596324103
Si	13.62871523451721	2.7010052251103494	10.8831075110822	14	-0.06050967815702497	0.05238138579790883	-0.06293294492126453
Si	14.97209417692284	4.0637886206839315	12.254768974379388	14	0.03974260337565692	0.01137714104165525	-0.004968918141718177
Si	13.549155344530849	16.311556324744522	13.554622536970937	14	-0.03868022265737173	0.1639987241772413	-0.022269114509398558
Si	14.843198995156213	1.4069991104330803	14.893954124973156	14	0.11939416064118434	-0.34660299489320207	0.19357312023277656
Si	10.888868463116085	2.7028983424925888	13.611758777964221	14	-0.03935770890923075	0.023415570371652584	-0.02986415962511598
Si	12.230697007665565	4.093605219454205	14.955823159422037	14	-0.010732050716830097	0.02885345812376577	0.07316208743747367
Si	10.88743230510197	5.432838887591824	0.02710585051863579	14	-0.01089428746253144	0.01891845005618158	-0.045343242094535476
Si	12.251651858689668	6.800240836778974	1.3720923107014225	14	0.01242589490174365	-0.01573490744877423	-0.0059485092686945955
Si	13.62517379941423	8.156871600860278	0.02600914803513147	14	-0.03929394549729108	0.052731827453045006	-0.0386640246938548
Si	14.970560099044127	9.527276425895117	1.3749940026890277	14	-0.0008680051560819916	-0.005709653584452839	0.0042281826989835165
Si	13.60653638518563	5.433377446847117	2.7228903148481365	14	0.011606740746744474	-0.00204814249802996	0.007957056744794274
Si	14.97220841676487	6.794626764541988	4.069973892131077	14	-0.007902292201475121	0.025701025890732213	-0.00938890529758474
Si	10.8876934247409	8.165162149396293	2.7209155975787316	14	-0.004483750567806234	0.008104638190170774	-0.006508753117954862
Si	12.255862412867407	9.535811774092629	4.061977103188858	14	0.02075807591274753	0.031012929482158145	-0.0022209207755439107
Si	10.871765126766194	5.4539079784579565	5.45460973748758	14	0.005279507664392066	-0.009411016803338014	-0.05341625568926843
Si	12.250803219863144	6.839376142663548	6.777702947943863	14	0.03691258774976992	0.04377538207030918	-0.03681797107398847
Si	13.622562603024933	8.169356383596599	5.408146761735544	14	-0.02461704788775778	-0.04326578899585583	0.032283569731375326
Si	14.96378730840939	9.509487650493039	6.799457477862186	14	0.01543074568940071	0.011420849832097766	-0.004015038067943241
Si	13.579249382917485	5.45877133173302	8.162746792736193	14	0.041568345263494066	0.011072722171749715	0.003244992024558891
Si	14.966039465295157	6.792733647159748	9.518398358171511	14	-0.019288175001218873	-0.010758018880563594	0.0051141855923065435
Si	10.906624598563296	8.238536767935509	8.109429426462256	14	0.03536581078916884	0.21006110442982218	-0.008645084528465902
Si	12.273471668517722	9.538798329962885	9.500870702408362	14	-0.10638025395272283	0.02776742323653522	-0.024170704004180078
Si	10.922389696763672	5.403626127986575	10.943475107607236	14	0.015796613976457784	-0.013392373391587315	0.22119064802914715
Si	12.285548451818215	6.790318290499649	12.249334421894167	14	-0.11830632598022969	-0.026330689583636477	0.02138645405299172
Si	13.610387899859841	8.161180074902616	10.869088650467168	14	-0.0043258847011491425	-0.0034321684918656704	0.004595079428168647
Si	14.9631018693572	9.51807195862285	12.23014212843284	14	-0.041365999274798414	0.01228191300381536	0.003103838342482761
Si	13.624586280226637	5.431533289397177	13.613913014985389	14	-0.03311197986552704	0.03757824691715626	-0.03214627270727942
Si	14.971702497464443	6.804124991408052	14.96958090039814	14	-0.014164990540291814	-0.010582412387197477	-0.0006564031882338046
Si	10.916873544391285	8.092929929277393	13.636646743549697	14	0.01123804424383524	-0.22503059382478827	0.006459387895808019
Si	12.24752290439909	9.485937923057074	14.97573353189042	14	0.05305013029167935	-0.01605372450847259	0.0518720498339875
Si	10.848574438833761	10.856065308475554	16.296068666160508	14	0.01653272142961618	0.02987598670958866	0.0877096584494035
Si	12.219321983394696	12.234907561843306	1.3165342115259202	14	-0.04361803042471612	-0.05712533222411405	-0.08965804206101173
Si	13.55875149126151	13.581827939351914	16.239405704512787	14	-0.05206359718033853	-0.0782310215761456	-0.178474818461271
Si	14.675968186399238	14.688355049270962	1.6355881383452822	14	-0.10913236508740931	-0.11731207955292841	0.06011372793772216
Si	13.608103103019205	10.91163483163526	2.703795941251409	14	-0.002357703578575789	-0.004995400526515703	-0.013969072314896528
Si	14.989621832685987	12.234956521775606	4.095302497107248	14	0.027698260503423243	-0.03241238210791474	0.027960513246078345
Si	10.901026846303743	13.621534444446647	2.706178657956642	14	-0.02842254087210895	-0.0033203254104392293	0.005700397605300305
Si	12.230305328207173	15.005060531337701	4.0881217070366835	14	-0.016679788653928645	0.03405557551802138	0.020135868425271694
Si	10.892442538173933	10.896963171922902	5.418216187811767	14	-0.040345013352167614	-0.010138896719471935	0.02145278857025154
Si	12.246755865459738	12.25762497043018	6.781081183272515	14	0.023801493280206813	0.01824430624123875	-0.026879363458956074
Si	13.610371579882408	13.622334123340869	5.4191790664803206	14	-0.013450223261290646	-0.010230685179401221	0.021233473286442914
Si	14.95709611766182	14.96967882026274	6.800730436101968	14	-0.012688147644398755	-0.006667133205675984	-0.01609846174104317
Si	13.612313657196946	10.897550691110492	8.13645530909147	14	0.020101158503449696	-0.005491880963836296	-0.0018355120880537137
Si	14.967573543173868	12.247016985098666	9.505326056247599	14	-0.019719092252875693	-0.0009919324325131289	-0.0034062003281321754
Si	10.884886388622407	13.613162296023468	8.146263615528763	14	-0.03317394350374261	-0.0016856166478890807	-0.009572739327975328
Si	12.238628516698052	14.969303460781777	9.509455010538172	14	0.011395910110492331	-0.008584663553442421	0.0012022488477012418
Si	10.90301788355058	10.92433177407821	10.804347299990058	14	0.04983393464670611	0.005486995863728015	-0.20977468329715765
Si	12.247131224940699	12.257527050565583	12.203312085532824	14	0.02520351701128356	0.028763726548092606	-0.055551301547119396
Si	13.614255734511485	13.618711088350722	10.85730562676047	14	-0.02351584347913836	-0.0078914935591305	0.05123210171980264
Si	14.943827976008707	14.989768712482885	12.21365895122541	14	-0.03323205048397795	-0.08620093384754061	0.006332889514056734
Si	13.567890678624048	10.858137945609558	13.576768746347653	14	0.043028733085338174	-0.018247648678154944	-0.007127103947450475
Si	14.935912786953656	12.204976723231	14.937479504787232	14	-0.053980099085976896	0.09792337433369175	-0.050499850924624466
Si	10.850663395945196	13.575512108085304	13.578988263278555	14	0.009947863594184932	0.07186676457718306	0.011653791974103182
Si	12.199444250881179	14.965762025678794	14.923020004781508	14	0.03839920084587954	-0.09149046882268126	-0.03149192640330173
H	2.514467883050016	13.81069930287371	13.796729402190975	1	0.10101924224968205	-0.11226294292522161	-0.10161085358384812
H	0.7479543577454328	0.44306617133800197	0.5170576850241908	1	0.03323050782078586	0.14614368328147295	0.1964316751277172
H	5.639645641624068	5.638862282707279	13.406665621562453	1	-0.13299505067423567	-0.13319945354718743	0.13193395550861053
H	15.574236064294494	0.4317466349904038	15.799239593164645	1	-0.018784238358469853	0.12884143002953644	-0.18649075351789665
H	13.790201411217735	13.80275147386379	2.5139619637495905	1	-0.09368336455023556	-0.10619102060115991	0.1017337524181512
H	10.688100100734088	5.640722760134652	8.358276442362165	1	0.12499865601804314	-0.12358094854451344	-0.1286185151982796
H	10.680772430866627	10.674929878945576	13.396530915576498	1	0.13725897173716925	0.1463933376080593	0.15219349409978136
H	7.633914243994021	8.72792393122188	10.367689983790035	1	-0.18615522427361733	0.15009212972162433	-0.18564665964129207
