223
config_type=interstitial dft_energy=-23338.71858205514 dft_virial="42.124458648581935 3.7075909127932376 -4.657436593358136 3.7075909127932376 38.90376342078415 -1.3768771419953356 -4.6574365933581365 -1.3768771419953356 38.23328411685599" pbc="T T T" Lattice="16.3199774331 0.0 0.0 0.0 16.3199774331 0.0 0.0 0.0 16.3199774331" Properties=species:S:1:pos:R:3:Z:I:1:dft_force:R:3
Si	11.576575992169486	15.697778293463063	2.2429197785406654	14	-0.4751430913792172	0.8357514111723298	0.1401596927593603
Si	0.10106309225221506	16.315456799351033	16.240025863655244	14	-0.003587977474266644	-0.021627880842553626	0.0546154192105855
Si	1.3954478304059321	1.3728544536475484	1.3286730107406601	14	-0.00021057352572012767	-0.014442927025399819	0.002030401871320938
Si	2.746032042848272	2.727427268574538	16.285411720896693	14	0.0029143478803878476	-0.001566060250502195	0.006901360900341475
Si	4.096771295076226	4.080010678252433	1.3391308522797905	14	0.0050151980374808424	0.006977465617817856	-0.007680405812346342
Si	2.7250771918241714	0.020244932005760552	2.714860885951051	14	-0.006127201088444887	-0.0015858577614673353	-0.018275930836676578
Si	4.090406503877318	1.362997187277956	4.077513721705168	14	0.00399575477804213	0.010812526313350732	0.01025845311685882
Si	0.09661753039943861	2.8094514751532986	2.664089436156677	14	0.003261961319671868	0.0068622800994752224	0.02657211637319838
Si	1.421063666984926	4.116910147228672	4.073401087392027	14	0.025597667456862257	0.02572442294914556	-0.003541183357439949
Si	0.054746996297077265	0.04134503082901554	5.4610398085962215	14	-0.1325967864601447	-0.07468855266604559	-0.131838310390701
Si	1.4010145747083624	1.3794819964831302	6.832456472231913	14	0.08904894721066864	0.003863599964586519	0.01191784449048239
Si	2.742049968354596	2.7263338300865207	5.440737756669445	14	-0.02330398440075816	0.005423746672852373	0.00688721982108066
Si	4.085885870128349	4.088692906246842	6.802509313642175	14	-0.00303107606192257	-0.0721557568151677	0.0024888299499033406
Si	2.745901483028807	16.315685279035094	8.163073192284855	14	0.009721863436543916	0.024385134187880426	0.008955674051139789
Si	4.093539939544473	1.3704815289287757	9.509438690560739	14	-0.001560660929329884	-0.011666904611235937	-0.06009135932143687
Si	0.01104699272446539	2.731001343632387	8.171706460346966	14	-0.07118079367776756	0.03326418930047981	0.015905628842032064
Si	1.3445996767176223	4.1036583255529955	9.544200242493243	14	0.05022037177632437	-0.07680662922878358	-0.06090125749728352
Si	0.01760762365257159	16.303559535802304	10.854694430371172	14	-0.00805038786791565	0.005646404393577197	0.012282427224879388
Si	1.3855089641491742	1.333911723496685	12.21529094896872	14	-0.06465635681735979	-0.020261338364894924	0.012907205817675372
Si	2.7245223125914464	2.7246855123657774	10.867619852498187	14	0.002860354668664738	0.03912708076201347	0.07088074568690626
Si	4.1059757623484945	4.06951693276295	12.220040062401752	14	0.006058038355332904	0.007144073242563453	0.015362354287884773
Si	2.7531149130542376	16.302009137946158	13.576621866550756	14	0.0700322809312574	-0.018385459923314883	0.02404909072253707
Si	4.100035290562847	1.3674052131826364	14.924864162231446	14	0.02941267353089798	-0.01139899543687651	-0.0076055866475300314
Si	0.03470443201148715	2.6925188368451374	13.574679789236217	14	0.02911751064014498	0.026116773621000157	-0.01164299333175856
Si	1.3729458455211738	4.079276279267944	14.932485591692704	14	0.016380254884131397	-0.022290968904619818	0.015563671834452366
Si	0.02727231428845341	5.454299657916351	16.289638595051866	14	-0.005852349929721057	-0.006107917798543777	-0.0710357833377112
Si	1.3815627936058505	6.79942483790732	1.341934624402797	14	-0.005337100423563382	0.010665716199570276	0.012594045189681335
Si	2.728993986408116	8.15977655684337	16.29943058151173	14	0.01432362773854495	0.016679531543396634	-0.021891933358932834
Si	4.0805655574851585	9.526427787068597	1.3284298430769068	14	0.013303156036978177	-0.037763109389674906	0.06649752533711784
Si	2.7601488233279037	5.458738691778154	2.6981002691272575	14	-0.0004602278523065062	-0.0036741095024916052	0.010172578199165875
Si	4.1043111246503186	6.806948347503978	4.062695182195914	14	8.716047035301989e-05	0.011769491713509847	-0.008650740960170227
Si	0.00915713933771241	8.143179139793908	2.7012989847041453	14	-0.0015089817123949076	-0.004750631300037606	0.0013660282565946744
Si	1.365386431974162	9.491976314707324	4.072568768542939	14	0.01604086898187185	0.03233422050618224	-0.028514586442570253
Si	0.00235334074585302	5.432267688381666	5.415637631377337	14	-0.007655466090740905	-0.0317847752992666	0.004105283864680438
Si	1.364191809626059	6.786417815893139	6.775124391509433	14	0.001912645247658156	0.017749111356578234	0.005444058404881543
Si	2.729483585731109	8.141220742501936	5.425396977882331	14	-0.012456233944521397	-0.002443578496268734	0.003973129051224826
Si	4.07720364213394	9.512947485708857	6.778665826612416	14	0.008943075635071062	0.0018460536198663207	-0.008525528131079015
Si	2.7069783368508635	5.434780964906363	8.15809559916776	14	-0.023989441079109636	0.0785243846931745	0.0322223774247558
Si	4.0944701782581605	6.7935659660088366	9.486672322041565	14	0.0026245843108071588	0.00492469513021163	0.00397544304601296
Si	0.01459821981390795	8.166092388109979	8.114521259421384	14	0.011504667865534595	-0.013325524653263464	0.005018540474397036
Si	1.3657683194460963	9.511592927581908	9.494065271818759	14	0.01885571508636997	0.019921952462635374	-0.01574519187005482
Si	16.22368956624471	5.545087692376686	10.97187186834083	14	0.16730902227693192	-0.1576655775526525	-0.21119676164973153
Si	1.4358724145077209	6.819628969969497	12.239118116021046	14	0.06705468385999391	0.06767766267906579	0.05856463698233295
Si	2.7524621139569136	8.164558310231268	10.841328368853464	14	-0.009899269703634134	-0.02252493948875329	-0.019262978169081423
Si	4.095563616746178	9.513910364377407	12.217641025719088	14	0.01879812232719865	-0.004351852864882638	0.012749082840486264
Si	2.7563952285182904	5.426294576641151	13.586185373326552	14	0.005260224374490955	-0.014730376600192373	-0.01591205660533243
Si	4.092936100379448	6.800534596372771	14.94577005332325	14	0.01066905863648647	0.004259807294421337	0.007339991467958737
Si	0.04239277338022056	8.165814948493617	13.570779314629705	14	0.0013853115464957848	0.023423026577081014	0.02254113745227022
Si	1.3742090117744958	9.530132421945911	14.949964287523555	14	-0.05393407630074626	-0.03527942165041186	-0.028191398503827642
Si	16.298581942685207	10.85942722382677	16.29634610577687	14	0.026870621700867573	-0.0016010272828562086	-0.03368765034670819
Si	1.3190768640099975	12.189407464759825	1.3679682524040782	14	-0.08705762614021396	-0.03739338444463761	0.11483893334547797
Si	2.84036151241159	13.470737852964803	0.0943457895407511	14	-0.16009012986955215	0.1908459488196955	-0.1864498729433063
Si	4.1050618436122415	15.009597485064102	1.363323586826618	14	0.03535706903108034	0.05832321019277103	0.041630308901709635
Si	2.7100791325631532	10.857599386354265	2.7056727386562156	14	0.01166536194804385	-0.03324901977909093	-0.003863085743522489
Si	4.063609100932167	12.245629787016853	4.046212004988483	14	0.01932442758623296	-0.02482479319762575	0.01904237733261272
Si	16.319422553867273	13.60490438744232	2.699813866757733	14	0.051565574079825836	-0.07377658160898905	-0.1159956736290126
Si	1.3528380013258512	14.979372886858	4.056705750477966	14	0.051891076013356595	0.0078290156998509	0.044732861691532316
Si	0.005940471785648401	10.870214728910051	5.4127326753942455	14	0.009902097919486298	-0.020354155266952265	0.009275262442434196
Si	1.360828262277097	12.237176038706508	6.768270000987531	14	0.004111968738512823	-0.0045500850850660555	0.0005892973393779397
Si	2.711401050735234	13.607352384057284	5.413042754965474	14	0.016797288167059415	0.0011300007882050806	-0.008579264232270109
Si	4.078264440667091	14.95505612048268	6.781717662392405	14	-0.0017414096333362942	-0.010426089183732475	-0.007406840206282587
Si	2.717684242046978	10.874719042681587	8.133893072634473	14	-0.0046776119089454	0.003321096742035274	0.0006648878357902933
Si	4.075849084006992	12.226160053939164	9.501131822047292	14	0.0031488326855853527	-0.004679154572137489	-0.006222074874758352
Si	16.319683673506205	13.603794628976868	8.115810537638598	14	-0.025295562581744858	-0.011701357422525921	0.0007700460433843496
Si	1.365887455281358	14.946896131766133	9.48770048061985	14	0.0035216429570068242	0.022674834928917923	0.008774668236601365
Si	0.0057772720113174	10.877558718754946	10.841491568627795	14	-0.01524459766422199	-0.0065051535705066554	0.008767726252236964
Si	1.3640106578765516	12.22877125032846	12.204421843998274	14	0.003418798744200901	-0.006166538999843153	0.013787809389826088
Si	2.7204749581880376	13.591864725473272	10.851299875065088	14	0.010504765006529007	-0.022827301474402706	0.00853864076821177
Si	4.085804270241184	14.953342522852205	12.200586649301496	14	0.014853789655559481	0.02648058502380111	0.00635782923566217
Si	2.7198384790681467	10.869104970444601	13.558718851306645	14	-0.0070350583769891745	0.003935848024082679	-0.006666104763547924
Si	4.115979908514985	12.21488294953289	14.8744027920083	14	0.05332395300827512	-0.03339582989287138	-0.07765946486347669
Si	0.02802303325037601	13.585140894770836	13.585206174680566	14	0.018994554773657964	-0.03949063505428241	0.03318911302513148
Si	1.4411813031667082	14.907532346197494	14.934541908849276	14	-0.022384042917209176	0.01634194541486119	-0.07255324969766261
Si	5.449028305205459	0.00768181337776017	16.286619399226744	14	-0.01285372682701629	-0.007016803529216123	0.014516460637556053
Si	6.791052689484139	1.349110518480131	1.349482613965606	14	-0.0021491869371117796	0.0038260618269123563	-0.02918255960474473
Si	8.155598642620495	2.726203270267056	0.021384066430590928	14	-0.017398412590910035	0.01964298753539931	-0.014032321505772171
Si	9.496676468208056	4.0645393396458545	1.4059693198570515	14	-0.030232341906961183	0.010962678864047379	0.07585969113937302
Si	8.139050185503333	16.300834099570974	2.7099975326759873	14	-0.017988995482948047	0.08428803148935045	0.04212601800743418
Si	9.531176900501627	1.3290108342735252	4.049492320452536	14	-0.05042606020193621	0.01956919681271106	0.022415667512646998
Si	5.440835676534043	2.7157421647324385	2.7066356173247685	14	0.006310006676707415	0.011654306195167214	0.024161190914495527
Si	6.794039245354396	4.070398211544338	4.077285242021105	14	-0.013513729562698302	-0.011561746403641882	-0.003488218587844899
Si	5.44460559132109	16.314249121020982	5.432055528675035	14	0.0010767789080780154	0.028012449573545335	0.008993983520409995
Si	6.804304511159816	1.3572492912260181	6.785862936660413	14	-0.029612191303741466	-0.012645210185552282	0.005461284810526535
Si	8.16656566745554	2.701282664726712	5.409778759478854	14	-0.011647878431866843	0.02386499958161447	0.004581195459439848
Si	9.524371469912026	4.06435981989409	6.769298159565817	14	0.013852601243893821	0.01647178623352867	0.02332661012757546
Si	8.108123828267608	0.00714488612021118	8.206435372324602	14	-0.015240741006241768	-0.003192284365495855	0.004026350931351892
Si	9.528892103660995	1.3586821852446445	9.508116772388657	14	-0.0036643393022750426	0.0033010421205381187	0.019333683565385496
Si	5.4525044603987105	2.723314634261397	8.145692416318605	14	0.008260704283103763	0.0014596164902480643	0.012619242021818789
Si	6.821326247622539	4.068815173733326	9.50787197272716	14	-0.009034606984468334	0.00465138663467989	0.005081018333676634
Si	5.438322400009346	0.01348682935071384	10.877069119431953	14	0.00677280563433407	-0.016764892240025548	0.03340894253000414
Si	6.821554727306603	1.3548486225456093	12.228151091186003	14	-0.010013169669316695	0.02423986673729206	-0.000491081116148283
Si	8.185382601435904	2.721535756721189	10.880496314692904	14	0.004145907328738777	-0.0011032612928755408	-0.006696443806325672
Si	9.54697463865687	4.085200431076159	12.243393950108517	14	-0.04289914937720272	0.006764320986777581	-0.01569479820577992
Si	8.175345815314547	16.314657120456808	13.586577052784948	14	-0.022796191100028913	-0.04101195807221403	-0.032969283520258824
Si	9.495289270126243	1.4133687976252192	14.928258717537531	14	-0.01619770640640088	-0.06627975271650129	0.015791214655285473
Si	5.475482988624514	2.7257952708312283	13.584096416215116	14	-0.014367336528987466	-0.0020915941779404623	-0.002136588521043054
Si	6.82506352245472	4.092903460424582	14.95579051946717	14	-0.019866930808784204	-0.004907211614034623	-0.024908611231062572
Si	5.451280462091228	5.443104153397244	16.303951215260696	14	0.006440875937502953	-0.011275068160445371	-0.0002283141524291494
Si	6.809069944570282	6.79426772503846	1.345014204144423	14	-0.02460239258743294	0.017339277168546628	0.017308938125768884
Si	8.164313510569771	8.163269032014053	16.314477600705043	14	0.0031043525635467907	0.012712058923876132	0.010875261283162343
Si	9.519100117201134	9.51745179948039	1.3519420345647741	14	-0.0030686141995967323	0.0017275256646074942	0.0038620573013944293
Si	8.14766713358801	5.44502991073435	2.7323559017593344	14	-0.01708833728930018	0.021572344967638428	0.012647524180340416
Si	9.522102993048824	6.8021992340709465	4.067705415267875	14	-0.014554512996294244	0.0069165304217303466	-0.001110974608835985
Si	5.440150237481853	8.160739435511923	2.6875249237506087	14	0.008096667763678317	-0.001217932590154145	-0.028818233980879744
Si	6.778649506634983	9.503481898797657	4.0647678193299175	14	-0.012797162509973035	-0.0004347739096370402	0.05885157233606147
Si	5.442010714909227	5.438420319873945	5.432643047862627	14	0.004313800506144447	0.03193647051315533	-0.011179680153067877
Si	6.8098859434419365	6.790775249867776	6.783186460361384	14	-0.0002640525163792077	0.009419501450894503	-0.0003807806979139305
Si	8.155631282575362	8.1553048830267	5.421382263433789	14	0.009088600196191444	0.011647621321334827	-0.010123212977019031
Si	9.51422044394864	9.50207838073841	6.790008210928421	14	-0.049186530327092824	-0.006665076321419865	0.012639553753847956
Si	8.168866784273606	5.423699700229288	8.135427150513184	14	0.0005090788533893197	-0.002738227165957704	-0.0016151683621170232
Si	9.522592592371819	6.782778460925557	9.49754142701201	14	-0.010048908033266751	-0.0005170492798817787	0.0060742363188498365
Si	5.448897745385994	8.157312240250972	8.13124923629031	14	-0.01128303858693783	-0.008260704283103763	-0.00387439860693114
Si	6.803194752694365	9.511984607040302	9.498259506019066	14	0.017329249857798053	-0.005019054695461065	-0.0006417478879089606
Si	5.4470046280037545	5.429689131947236	10.847138280819648	14	-0.007413267969582957	0.024630674745954567	0.004741889541949102
Si	6.798070279780372	6.787919253816984	12.207849039259226	14	0.017450863139441056	-0.025057221118567133	0.020043308633746364
Si	8.159499117227007	8.144044098597861	10.849667877321778	14	-0.005202888725851653	0.004876101239660832	0.012146158642911539
Si	9.523751310769567	9.498569585590296	12.207881679214092	14	0.002070768224847263	0.012400698069606201	-0.014524688174580528
Si	8.173044698496481	5.456339655095489	13.582431778516941	14	-0.03270883055132782	0.009060832258733845	-0.021476442739196903
Si	9.514399963700402	6.852138365016232	14.916932653198959	14	-0.04587854622219031	0.05365202604712601	-0.07083729400699577
Si	5.449550544483319	8.147683453565444	13.57500618878488	14	0.008482333561700528	0.01604626830304416	-0.0051509523983846615
Si	6.812692979560429	9.500136303423872	14.937642704561563	14	-0.024514460785483874	0.02022534289041285	-0.005614265577075345
Si	5.44207599481896	10.870361608706949	16.274101976535555	14	0.03057198491975275	-0.03147444288712472	-0.03208945127970415
Si	6.7787800664544475	12.232394285318607	1.3354931293099526	14	0.0017555507125971085	-0.022385071359337233	0.08807141296794835
Si	8.130302677599191	13.538237279628104	16.243681538600256	14	0.02508576038762078	-0.12696658003008446	-0.04768346215693425
Si	9.434252554526449	14.945019334361325	1.2934855073971532	14	-0.05188104870260801	0.05655274706931708	0.1112365576814185
Si	8.122371168566705	10.853878431499517	2.7031757821089517	14	-0.02738972786500547	-0.02934556768204211	-0.1195916215297717
Si	9.434481034210512	12.167995654367594	4.135465961570107	14	0.018242506467514654	-5.553587491519851e-05	0.0005005942058328311
Si	5.438012320438117	13.610192060130643	2.702082343620934	14	0.01013915383000395	0.0015076961597348336	0.0009006581936478722
Si	6.797597000434812	14.94699405163073	4.0802065179816305	14	-0.04872296003787013	-0.031611739911220633	-0.008376661133042442
Si	5.420468344697535	10.87795039821334	5.411737156770826	14	-0.003484619040396691	0.010362325771792804	-0.0012534138435721885
Si	6.775565030900127	12.220953981138006	6.793043726730978	14	-0.010334300723803189	-0.014956119647301374	0.010154837572456854
Si	8.127691481209895	13.59773991734919	5.4611050885059536	14	-0.008532984336507444	0.002429694527539935	0.02241361062839088
Si	9.432538956895973	14.928601437063627	6.891273670900806	14	0.009423615219406739	0.002922832527944336	0.020938053285157895
Si	8.159858156730536	10.873935683764797	8.141400262253699	14	-0.008998097288922233	0.004061060853173891	0.006130800635893094
Si	9.519410196772364	12.231415086672623	9.504656937172841	14	-0.019977745448082587	-0.008229593908729972	-0.001268840475493077
Si	5.426408816483183	13.591146646466214	8.14735705401678	14	-0.0006512609775935085	0.014824736165441808	0.005283107211840272
Si	6.764598006065084	14.946602372172336	9.532743618335207	14	-0.00486530259731621	0.018348693117236765	-0.02350298795253762
Si	5.447739026988245	10.87457216288469	10.857060827098973	14	-0.006991092476014642	0.006334946398312851	-0.0029493149127418614
Si	6.81543473576919	12.222373819174685	12.216155907772674	14	0.0065321501763682096	-0.01400018268927032	-0.018407314318536143
Si	8.157769199619098	13.590706007075521	10.858448025180786	14	-0.012527453561889501	0.013329381311243685	0.009061860700861903
Si	9.518545237968409	14.94967052792976	12.210900875039217	14	0.010069991096891965	0.018265389304863967	0.024838934276886562
Si	8.17004182264879	10.852866592898664	13.57223179262125	14	-0.02733624887434639	-0.006743495033684381	0.0032012832341163735
Si	9.540006008292936	12.209007757656977	14.917308012679921	14	0.015876575351914387	-0.011895732984729117	-0.024728890969184226
Si	5.457286213786608	13.604855427510019	13.545564949495567	14	-0.006046211270860222	-0.060112185274530064	-0.0031377769327087155
Si	6.797548040502513	14.95288556348408	14.928748316860524	14	0.008775696678729423	0.13737210037125575	-0.03318114259863902
Si	10.880512634670337	0.020109476193065818	16.220441890735525	14	0.04405203300275711	0.1490428616404719	-0.24525645093626514
Si	12.27183967077441	1.463007640985736	1.3555977095097886	14	-0.30158139807421713	-0.09306707060499605	0.033534155359095354
Si	13.709205363217261	2.7085287347070084	16.28911635577401	14	0.1659108552038354	0.007952942976282039	-0.00038386602429810814
Si	14.993587587202232	4.116322628041081	1.3399729631153383	14	0.015776045133896598	-0.024530658749000806	0.048635028235921064
Si	14.002997596967926	0.0038302987035485703	2.7987129300023192	14	1.2869433709417075	0.10560120904071794	-0.2974617160197439
Si	15.15092848963475	1.565102155811723	4.155833293406616	14	-0.29758692884883503	-0.3901114962312799	-0.2168421376011807
Si	10.893095337271257	2.7500141173419483	2.7530659531219386	14	-0.06938384816951607	-0.01084183691400042	-0.036255670340472085
Si	12.255666573138209	4.115294469462795	4.079178359403345	14	-0.00993115140960397	0.0005227057115861044	-0.011093291014310901
Si	10.731250121067205	0.02286918437700303	5.587046354357186	14	0.10626121177639997	-0.14129663553192978	-0.22852215484954938
Si	12.252777937132551	1.3513740993501022	6.7951979637521465	14	-0.007338705915298662	-0.008601632848555398	0.014068831201318275
Si	13.58917192919681	2.7477619604561805	5.437832800686354	14	0.09295779862888977	0.00440970273458597	0.0011829655578001312
Si	14.97183305728391	4.076191803533088	6.794169805173861	14	-0.020453399932309983	0.031256413155976166	0.02606355174087309
Si	13.60464326780339	16.30391857530583	8.138511626248041	14	0.03262424118629494	-0.016866193789639383	0.048894709873256025
Si	14.97294281574936	1.3367138636219484	9.494848630735548	14	-0.009508718805503639	0.01549322354868031	-0.013428883087133416
Si	10.887448625079406	2.7185002409186327	8.140747463156375	14	-0.036581429384534854	0.011600055872912088	-0.006865879646923431
Si	12.24766978419599	4.076191803533088	9.499026544958422	14	0.0008659482718258731	-0.013821233758988012	-0.006510295781146952
Si	10.882128312436214	16.299202101827664	10.849928996960708	14	0.005282078769712214	0.0004622847365626246	0.010644633135945061
Si	12.24172931241034	1.3353021855739855	12.203752724923518	14	-0.03955876934526633	0.004672212587773089	0.0456214356901755
Si	13.594100562381605	2.6842119683316894	10.836742455194763	14	0.02168907314917315	-0.003022334303834067	0.004773771247918938
Si	14.950029567433287	3.9996347893944155	12.22740037222408	14	-0.046463215571991984	-0.0852784212586715	0.03193852739741146
Si	13.619935086658202	16.304620334335453	13.550020303334803	14	0.003066043094276584	0.003106409447802909	0.012309423830740943
Si	15.004978931450534	1.3163351078012366	14.909262263805402	14	0.012531824440933753	-0.023128892128456074	-0.02093933883781797
Si	10.92080665895266	2.7175047222952133	13.586218013281417	14	0.06587737473389811	-0.030080132472008424	-0.04271351557308802
Si	12.319885684337457	4.038443695730328	14.940776140228719	14	-0.03568179963301504	-0.060514306146601235	-0.06096836334613938
Si	10.781695171312917	5.317962566440233	16.196549443773463	14	0.14243872051513953	0.10922235377361449	0.21782944204411758
Si	12.216221187682406	6.768743280333092	1.302007799612718	14	0.06755682072901883	0.06822762210704547	0.028415084666680523
Si	13.601134472655273	8.118829733463722	16.27468949572315	14	-0.022399983770194094	-0.03857146490232947	-0.06334740709887239
Si	14.95657387838396	9.474334419102142	1.328531026936992	14	0.014073202080362526	0.019030550248140037	0.03581498288859871
Si	13.59369256294578	5.450921422587699	2.6824820507237805	14	-0.014480208052541965	-0.08347119132913941	-0.019410559614457923
Si	14.960670192719668	6.792341967701354	4.055628631967382	14	0.003550696447124497	0.06137999730789509	-0.017450348918377025
Si	10.882422072030009	8.13603098967821	2.68395084869276	14	-0.08341077035411591	-0.0193581090659269	-0.01915756285095535
Si	12.237747237916665	9.491829434910425	4.055400152283318	14	0.03646547253459618	-0.016917101674978317	-0.0025330529614098875
Si	10.879337596295153	5.451149902271763	5.432267688381666	14	-0.03476314370212613	-0.01685051004718648	0.002779879072144103
Si	12.242169951801035	6.801415875154158	6.788947412395269	14	-0.0030989532423744796	0.00864019942835762	-0.016817599899088584
Si	13.603843588909168	8.149560250970248	5.420500984652401	14	-0.007995109103532466	-0.017539309162454147	0.016302093282398896
Si	14.95631275874503	9.52071579496701	6.774667432141307	14	0.002477259975962674	0.005475940110851379	-0.024988315495987165
Si	13.601183432587572	5.433002087366155	8.13214683504913	14	0.012833157984455106	-0.006584343614367215	-0.004684296782777785
Si	14.951286205695636	6.821407847509705	9.447602296066725	14	-0.06188444817170814	0.04208616587497189	-0.06691687261483399
Si	10.876089920785967	8.150066170270675	8.149005371737523	14	0.036328175510500264	0.002292397503444027	-0.004934208219896178
Si	12.226698613194458	9.500495342927401	9.521531793838665	14	-0.002717915433928534	-0.00047796847901552793	0.01098838991724886
Si	10.885196468193636	5.4299339316087325	10.85531458951363	14	0.011721669154555093	-0.005860834577277547	0.008714247261577884
Si	12.263320642554334	6.769591919159613	12.207620559575163	14	-0.03185882313248686	0.017593816595241292	0.0037633268571007437
Si	13.608152062951504	8.142852740245246	10.848819238495258	14	0.008493389314577163	0.010254082237814568	0.0035437544627600973
Si	14.984807439343223	9.497378227237679	12.19665353474012	14	-0.015881717562554683	0.018019848746789826	0.01774088381955376
Si	13.632370909462226	5.4140382735888934	13.562505086071125	14	0.09154934713451264	0.008216995492661246	0.06436710746884314
Si	14.99401190661549	6.790546770183713	14.9071896266714	14	-0.023112694164939142	0.016001016849409553	0.01607197935624564
Si	10.909284754884892	8.154342004358147	13.552076620491373	14	0.005029596227273672	0.0015465198500690695	0.02093445373770969
Si	12.26025248679691	9.49933662452965	14.920604648121408	14	0.026915616043970164	0.007357474984135743	-0.030225657033128798
Si	10.88248735193974	10.837134134653157	16.278802130036286	14	-0.024882385956797065	0.007458262312685548	0.00682577040392912
Si	12.254703694469656	12.166559496353482	1.3209520294170605	14	-0.04831698250781874	-0.03739801243421388	-0.015290106228388611
Si	13.570093875577516	13.58047338122497	16.276843732744318	14	0.1845940491232234	-0.07256764788745543	-0.2032222213887603
Si	15.079153228883975	14.895635082648765	1.1851665531781816	14	-0.08937676313898753	0.20514952193674327	0.04859029100335049
Si	13.6061773456821	10.830818303386547	2.6954890727379617	14	0.004283461463366701	-0.037980882010291456	-0.0023317354148422926
Si	14.967002343963712	12.203246805623092	4.027117631391756	14	-0.023198826193164105	0.06953322938861667	0.024634788514466804
Si	10.752988331008094	13.405294743458073	2.6576756850254686	14	0.007556992756979233	-0.49108548702732735	0.23216618241979525
Si	11.898177467466155	14.675853946557206	4.415663654119	14	0.008203368634464461	0.08660202627748372	0.10393796100911415
Si	10.883352310743698	10.841752688266725	5.432806247636958	14	0.013214710013965082	-0.007929288807336675	-0.019635274219438864
Si	12.230109488477975	12.180137717577823	6.825324642093649	14	-0.08132586105000784	-0.0381032666235305	0.023489618204872848
Si	13.634737306190024	13.47999128016937	5.492113045628844	14	0.05658025789624266	0.23174606381048307	-0.2517173814952653
Si	14.960931312358598	14.979193367106236	6.755001859334421	14	0.016077121566885937	-0.027040828873061373	0.030651432074145325
Si	13.59659751892887	10.841654768402126	8.171559580550067	14	0.04037818061079752	-0.01673815274469601	-0.0023124521249411824
Si	14.965876265520826	12.235462441076033	9.48131936944351	14	0.014148278355710848	0.0013223194661521572	0.019732719111072477
Si	10.886665266162616	13.583737376711587	8.155631282575362	14	-0.03410185541378405	-0.02779236295814066	0.06590925643986795
Si	12.253218576523244	14.943762696098975	9.503106539316697	14	-0.012261858382318204	0.01760024435854166	-0.004043320226464869
Si	10.873413444486937	10.87305440498341	10.862495379584196	14	0.016158368495002615	-0.003670767065575412	-0.016883677305816393
Si	12.25272897720025	12.22056230167961	12.210182796032159	14	0.008414970602312648	-0.025338757151123346	-0.0020483996085619745
Si	13.616067252006559	13.583623136869557	10.857501466489666	14	-0.004755259289613872	-0.031565717125989975	-0.00015503765080492914
Si	14.986243597357335	14.93904622262081	12.212777672444023	14	0.030132583020539443	0.04056664263076437	0.02591725584815667
Si	13.619951406635636	10.853209312424761	13.556336134601414	14	-0.024010781253266864	0.004696380977782481	-0.005156094609024958
Si	14.96662698448275	12.217494145922188	14.915170095636185	14	-0.07249642827008733	0.05708059499154348	0.10191347268002955
Si	10.88010463523451	13.579934821969676	13.552566219814368	14	0.008756413388828313	0.014526745058836646	0.010430460062776727
Si	12.244683228325732	14.949197248584198	14.887932053300341	14	-0.016819142562280672	-0.03190998812835781	0.025796156787577695
H	14.709587339911424	15.086807298300098	3.4912838123307837	1	0.049812080251484855	0.0372524878730935	0.4751713735377388
H	12.416565230651143	14.831089571900854	1.3479289521139748	1	0.1701092130811052	-0.22271222815761077	-0.09757293267855556
H	13.037948371416425	15.941125476968017	4.017146125180132	1	-0.43602500948582423	-0.07975003059928909	0.16321505127566013
H	9.87869449996206	4.408107504567475	15.21568616008929	1	-0.10108351988268575	-0.09467118321423644	-0.09614211256789315
H	3.7652472735002336	12.523330523018481	1.019603646114869	1	0.07509864396460919	-0.08916773227645948	0.0893536231911062
H	15.288440619486048	6.439079736184471	11.937998212402919	1	-0.09287963702715726	0.08602969823321875	0.10359806088579059
