72
config_type=liquid dft_energy=-6961.46887621495 dft_virial="5.990841028808682 -6.803704695000895 3.886467102968932 -6.803704695000896 8.407946644137947 -11.813379888846292 3.886467102968932 -11.813379888846292 17.61682063044179" pbc="T T T" Lattice="10.914011036500002 0.0 0.0 0.0 10.914011036500002 0.0 0.0 0.0 10.914011036500002" Properties=species:S:1:pos:R:3:Z:I:1:dft_force:R:3
Si	9.824716336980046	4.792516870303735	1.7074970266604252	14	-0.47227990849470025	0.05024402594526973	-0.06978519770999117
Si	6.430786324959641	2.192854011464617	10.077266552364655	14	-0.09757498956281169	-0.07865088307492578	0.26674574920206284
Si	7.642623540397419	7.680571556771328	6.278579527044612	14	0.17837711645910537	0.18283721285796622	0.13515606469582012
Si	2.1545240047044287	7.301145963087405	7.0469586460473215	14	0.33029807339495104	0.5101869997823034	-0.07486030250143147
Si	7.822704722499668	10.117713877265924	0.9031813435178321	14	0.10247011698184161	-0.1899915705218103	-0.26862702696481516
Si	2.0164290230595943	9.566108845470179	7.841858811868725	14	0.006008930243718076	0.05651263782632276	0.034808652266292754
Si	0.9962036423841288	3.307305506423705	7.520888661296298	14	0.3095788211725377	0.0455275903459901	0.0824190950321348
Si	5.786772361717849	5.372672954970965	3.6025731610051763	14	-0.0019828364228981986	-0.08391239300207681	0.665334951005467
Si	0.43742155693077994	6.552870452413929	1.8183724647802288	14	-0.26995551708373566	-0.10806355660582377	0.1514650999625834
Si	3.2774666002499138	10.16341084147575	4.808407670372879	14	0.20563648928437933	-0.028726188410418445	-0.1578491544725111
Si	0.014548376711654503	3.446830223514321	5.419319438140967	14	0.0625799321608082	-0.18087340261443713	-0.17398412590910037
Si	1.7255488009147961	9.495953582527557	3.1439227612073	14	-0.20846367669441415	0.1409690767141429	0.16083703596505516
Si	4.824407610552387	4.219749571108214	7.180011354593292	14	-0.14650055269990947	-0.37866956333555696	-0.0376031866387617
Si	-0.00911210781437385	5.07526615422634	8.768218240624773	14	0.08919292910859694	0.1288982514571117	0.13999977000844707
Si	4.030707985944998	0.8181295469114912	6.428068736211552	14	-0.09204865578768541	0.18370316112979213	0.10137019812588226
Si	1.9845055407778318	6.285258901798949	9.08925387526342	14	-0.16375035540331498	-0.08195449630078405	0.0945035471473628
Si	6.0042449456311475	7.988204785857154	9.306409952856662	14	0.4540566853170867	0.1674897709809383	0.3513004043131126
Si	8.730783182769578	4.027117276313989	4.992145046172356	14	-0.10605063825067984	0.08999074308943888	-0.10200706091368295
Si	5.7202514644503815	3.097232621993153	2.7919131632470653	14	0.016341174083265145	-0.31153054722106216	-0.15882051806246306
Si	4.788827934573398	10.268676477922794	2.97300934837571	14	0.10319773978744352	-0.056181479461087695	0.8375686684126106
Si	9.504935813610595	2.44411637354692	2.0270156137649993	14	0.2081019221758693	-0.1706735706988777	0.020939081727285955
Si	0.1498035326847917	8.247805452371344	0.2139004281010526	14	0.3071714952612831	-0.029313943086604295	-0.017877923733117654
Si	7.7962273317251185	2.365273557819244	3.6065131189893527	14	-0.18260658471074895	0.02384623051277739	-0.05643447622459026
Si	9.111038241292276	4.65991163621026	10.359404651669218	14	-0.16300499197100402	-0.0907373920744099	0.23218829392554852
Si	0.2605741962986448	0.5163822439776501	2.6799463240236117	14	-0.09136577021465407	0.30384397075594743	-0.10171729734410226
Si	9.492875831415263	6.473449194101319	7.397069206087204	14	0.13392321969480908	0.10823710621493375	-0.13137679698573446
Si	2.1523630305192016	8.486156539397467	9.925256206648283	14	-0.44855991925314215	-0.14340777011030334	-0.004562683501134781
Si	7.772412959643476	6.758981550838232	10.356294158523816	14	-0.03176060690925721	-0.3240099211134649	-0.013565151669101267
Si	5.8833395313688	4.002975483901252	0.6005096238491994	14	0.48888642064700466	-0.015842636761688435	0.018619173396916343
Si	3.8958435515669674	6.972274068524551	5.609190488142956	14	0.09065383115150508	-0.036872221396243604	-0.3134329080474397
Si	7.656146000071642	7.876008752401934	1.5224172275034582	14	-0.13557849729992044	0.13254947812225398	-0.16642636182052506
Si	1.2700962063506147	1.7733849112877758	9.290562808831663	14	-0.024114653908200848	-0.2025259660680642	-0.28300130547816704
Si	6.766392164332015	9.472892277207432	4.095046081005165	14	-0.35604975006049017	-0.23000465417714677	-0.5271575804479408
Si	4.720156977131739	0.5484301459852288	10.50935224929969	14	-0.0626526944413684	-0.08331306835195029	-0.06488595652244902
Si	7.91316004597018	4.632790318784557	7.061256000505136	14	-0.3561914179636303	0.1572953383865512	0.23646481340455086
Si	3.0654073658107186	2.946957604031584	6.261750122026329	14	-0.22538977723801298	0.39235915650215336	-0.10443572699909483
Si	1.7937831979149943	3.073341851834255	0.2927759858618381	14	-0.12436462144609461	0.20498599963838185	0.10768971789227422
Si	10.160627768661444	0.6848672893536188	9.839428423857248	14	0.22575333153028193	-0.12601835638801384	-0.014762001195630198
Si	4.028623409837027	5.242697997537287	9.099338421461146	14	-0.20961810298316064	0.19290283307581396	0.050127297763735014
Si	8.27441381127833	5.623084024192422	3.3452862648307247	14	-0.23939973012749988	-0.040750733771686976	-0.4417076664644155
Si	2.047435728414291	3.5830261672388044	4.213910575203688	14	0.20984564580399373	-0.07546991157283858	-0.17023905389977265
Si	9.571773217198123	7.870584488916794	9.358186021213816	14	-0.03395633085266366	0.096139027241509	-0.060558014937043755
Si	6.00532543272376	5.928599935137165	5.969985864987573	14	0.24341425397437905	-0.035283278308392084	-0.3764280737174518
Si	6.5766848244955725	2.806985412488472	7.848942005031414	14	0.14122541591456167	-0.2740546302956478	0.10632214697248746
Si	7.062576595840553	9.514943961731067	7.781493416825844	14	0.0299148103999229	0.15515874986550815	-0.11602909799817451
Si	3.3016629627178347	5.554587690927347	3.8392544043427153	14	0.12743040742983916	-0.15877938037734068	0.056202048303648874
Si	8.705386279087643	2.279642227226865	10.687621705569882	14	-0.02531124632419776	0.3643379651705195	0.10212970263745401
Si	4.306013914340711	1.326030512912677	1.8857446549085433	14	-0.15300030694924383	0.28908402644457337	-0.010154066240860809
Si	0.13008191474183622	7.53880946741823	5.977461962547577	14	-0.0038214338373360897	-0.000819154154999178	0.05164527834475043
Si	10.187465321800197	0.22468456240621823	4.8698208104752645	14	0.09694609720150346	0.09020388772047916	-0.06712256104044582
Si	3.6419181707917585	8.492519407831747	1.8279113104261298	14	-0.054409730784973645	0.12412782264610897	0.057406611146138244
Si	10.155934743915747	10.293298486821138	0.8798177200919964	14	-0.027951771487989843	0.07163253688251757	-0.21878280789682847
Si	0.08089792400584897	7.870999221336181	3.6995987191196607	14	-0.12105586600959604	0.1203349280778265	0.0643683930215032
Si	2.7313840580386364	6.324134609110963	1.7503563480007607	14	0.15952268692539548	-0.14991343790187406	-0.1462961498269577
Si	6.369416840901401	0.697655236085086	6.791974606201571	14	0.21608417575280106	-0.13788220766677312	-0.07806338550927194
Si	9.294306314617183	9.979728035731455	8.374975508968642	14	-0.07570619615176019	0.0027256287498889785	0.10810932228052239
Si	5.679051072787593	7.603627778964004	2.7118698063053746	14	0.013122407332971764	-0.12135848510577744	0.2950178804129431
Si	2.093296402789664	2.0330838039012935	2.3726077732357718	14	-0.08420652745070176	-0.045874689564210085	0.14418064436953987
Si	3.182602016320656	0.5526986157016038	8.639214630173344	14	-0.001230016785158841	0.036971466061601316	-0.04519668909128704
Si	8.599313005823898	7.865564043840004	3.9601489045940257	14	-0.03480839515576074	0.306492723456764	-0.11557632635129646
Si	7.818262720007812	0.48718399025170167	4.930939272279664	14	0.0852717363848391	-0.051297150684402375	-0.12500971177091977
Si	4.353304324161865	9.073701409536408	10.596555197481326	14	0.12732242100639296	0.3817119522608881	-0.027940715735113204
Si	3.567364561401427	4.625085026992788	0.3522617116151777	14	0.2972480571676395	-0.39648886586737514	-0.0754789104414591
Si	10.89140811964341	9.829114683427754	6.68205960105298	14	-0.13254690701693386	-0.2154617111547932	-0.07027602171560746
H	0.5532705098799164	3.9388010990066316	0.5213306565815993	1	0.09265543664324036	0.012742140856121863	-0.18403869037407142
H	5.0477191903702145	6.543102412536262	9.13581304634513	1	-0.22102198352014543	-0.09001542570051231	-0.22779890292299174
H	5.9079833682892176	9.130377868848953	5.2884931878464405	1	0.11159008466293886	-0.17758187358358357	0.37564594347906277
H	3.823472744383936	8.654396019525114	5.198387112729097	1	0.0885254701674865	-0.12399849604850549	0.03501408358137258
H	10.623665600895992	1.7899851220742922	5.253775718739334	1	0.04044837178603756	-0.18678385952439353	0.04949994806561887
H	6.314519365387806	5.451843191029736	0.07701253607685496	1	-0.42546727970970016	0.29886888196146094	-0.17417850147130357
H	7.432004955415041	4.229681321151429	0.8795721548436752	1	0.45676303077707464	-0.30133045819497073	0.2795066591270218
H	7.503961030178686	0.12203938000903937	2.0585789336825573	1	-0.2458002397114765	0.11150549529790599	0.16146181455785116
